<?xml version="1.0" encoding="UTF-8"?>

<!-- generated on 05/28/19 16:38:11 by Eclipse SUMO netconvert Version 1.2.0
<configuration xmlns:xsi="http://www.w3.org/2001/XMLSchema-instance" xsi:noNamespaceSchemaLocation="http://sumo.dlr.de/xsd/netconvertConfiguration.xsd">

    <input>
        <node-files value="cross.nod.xml"/>
        <edge-files value="cross.edg.xml"/>
    </input>

    <output>
        <output-file value="cross.net.xml"/>
    </output>

</configuration>
-->

<net version="1.1" junctionCornerDetail="5" limitTurnSpeed="5.50" xmlns:xsi="http://www.w3.org/2001/XMLSchema-instance" xsi:noNamespaceSchemaLocation="http://sumo.dlr.de/xsd/net_file.xsd">

    <location netOffset="110.00,110.00" convBoundary="0.00,0.00,220.00,220.00" origBoundary="-110.00,-110.00,110.00,110.00" projParameter="!"/>

    <edge id=":0_0" function="internal">
        <lane id=":0_0_0" index="0" speed="6.51" length="9.03" shape="117.20,111.60 114.75,111.95 113.00,113.00 111.95,114.75 111.60,117.20"/>
    </edge>
    <edge id=":0_1" function="internal">
        <lane id=":0_1_0" index="0" speed="15.28" length="11.20" shape="117.20,111.60 106.00,111.60"/>
    </edge>
    <edge id=":0_2" function="internal">
        <lane id=":0_2_0" index="0" speed="3.65" length="2.34" shape="117.20,111.60 116.00,110.80 115.60,110.00"/>
    </edge>
    <edge id=":0_9" function="internal">
        <lane id=":0_9_0" index="0" speed="3.65" length="2.34" shape="115.60,110.00 116.00,109.20 117.20,108.40"/>
    </edge>
    <edge id=":0_3" function="internal">
        <lane id=":0_3_0" index="0" speed="6.51" length="9.03" shape="111.60,102.80 111.95,105.25 113.00,107.00 114.75,108.05 117.20,108.40"/>
    </edge>
    <edge id=":0_4" function="internal">
        <lane id=":0_4_0" index="0" speed="15.28" length="14.40" shape="111.60,102.80 111.60,117.20"/>
    </edge>
    <edge id=":0_5" function="internal">
        <lane id=":0_5_0" index="0" speed="7.33" length="11.73" shape="111.60,102.80 111.25,106.65 110.20,109.40 108.45,111.05 106.00,111.60"/>
    </edge>
    <edge id=":0_6" function="internal">
        <lane id=":0_6_0" index="0" speed="15.28" length="11.20" shape="106.00,108.40 117.20,108.40"/>
    </edge>
    <edge id=":0_7" function="internal">
        <lane id=":0_7_0" index="0" speed="7.33" length="4.04" shape="106.00,108.40 108.45,108.95 109.56,110.00"/>
    </edge>
    <edge id=":0_8" function="internal">
        <lane id=":0_8_0" index="0" speed="3.65" length="2.34" shape="106.00,108.40 107.20,109.20 107.60,110.00"/>
    </edge>
    <edge id=":0_10" function="internal">
        <lane id=":0_10_0" index="0" speed="7.33" length="7.68" shape="109.56,110.00 110.20,110.60 111.25,113.35 111.60,117.20"/>
    </edge>
    <edge id=":0_11" function="internal">
        <lane id=":0_11_0" index="0" speed="3.65" length="2.34" shape="107.60,110.00 107.20,110.80 106.00,111.60"/>
    </edge>
    <edge id=":1_0" function="internal">
        <lane id=":1_0_0" index="0" speed="15.28" length="0.10" shape="10.00,111.60 10.00,111.60"/>
    </edge>
    <edge id=":1_1" function="internal">
        <lane id=":1_1_0" index="0" speed="15.28" length="0.10" shape="10.00,108.40 10.00,108.40"/>
    </edge>
    <edge id=":2_0" function="internal">
        <lane id=":2_0_0" index="0" speed="15.28" length="0.10" shape="210.00,111.60 210.00,111.60"/>
    </edge>
    <edge id=":2_1" function="internal">
        <lane id=":2_1_0" index="0" speed="15.28" length="0.10" shape="210.00,108.40 210.00,108.40"/>
    </edge>
    <edge id=":3_0" function="internal">
        <lane id=":3_0_0" index="0" speed="15.28" length="0.10" shape="111.60,10.00 111.60,10.00"/>
    </edge>
    <edge id=":4_0" function="internal">
        <lane id=":4_0_0" index="0" speed="15.28" length="0.10" shape="111.60,210.00 111.60,210.00"/>
    </edge>
    <edge id=":51_0" function="internal">
        <lane id=":51_0_0" index="0" speed="3.65" length="4.67" shape="0.00,111.60 -1.20,110.80 -1.60,110.00 -1.20,109.20 0.00,108.40"/>
    </edge>
    <edge id=":52_0" function="internal">
        <lane id=":52_0_0" index="0" speed="3.65" length="4.67" shape="220.00,108.40 221.20,109.20 221.60,110.00 221.20,110.80 220.00,111.60"/>
    </edge>

    <edge id="1i" from="1" to="0" priority="78">
        <lane id="1i_0" index="0" speed="19.44" length="96.00" shape="10.00,108.40 106.00,108.40"/>
    </edge>
    <edge id="1o" from="0" to="1" priority="78">
        <lane id="1o_0" index="0" speed="11.11" length="96.00" shape="106.00,111.60 10.00,111.60"/>
    </edge>
    <edge id="2i" from="2" to="0" priority="78">
        <lane id="2i_0" index="0" speed="19.44" length="92.80" shape="210.00,111.60 117.20,111.60"/>
    </edge>
    <edge id="2o" from="0" to="2" priority="78">
        <lane id="2o_0" index="0" speed="11.11" length="92.80" shape="117.20,108.40 210.00,108.40"/>
    </edge>
    <edge id="3i" from="3" to="0" priority="78">
        <lane id="3i_0" index="0" speed="19.44" length="92.80" shape="111.60,10.00 111.60,102.80"/>
    </edge>
    <edge id="4o" from="0" to="4" priority="78">
        <lane id="4o_0" index="0" speed="11.11" length="92.80" shape="111.60,117.20 111.60,210.00"/>
    </edge>
    <edge id="51i" from="1" to="51" priority="78">
        <lane id="51i_0" index="0" speed="19.44" length="10.00" shape="10.00,111.60 0.00,111.60"/>
    </edge>
    <edge id="51o" from="51" to="1" priority="78">
        <lane id="51o_0" index="0" speed="11.11" length="10.00" shape="0.00,108.40 10.00,108.40"/>
    </edge>
    <edge id="52i" from="2" to="52" priority="78">
        <lane id="52i_0" index="0" speed="19.44" length="10.00" shape="210.00,108.40 220.00,108.40"/>
    </edge>
    <edge id="52o" from="52" to="2" priority="78">
        <lane id="52o_0" index="0" speed="11.11" length="10.00" shape="220.00,111.60 210.00,111.60"/>
    </edge>
    <edge id="53o" from="53" to="3" priority="78">
        <lane id="53o_0" index="0" speed="11.11" length="10.00" shape="111.60,0.00 111.60,10.00"/>
    </edge>
    <edge id="54i" from="4" to="54" priority="78">
        <lane id="54i_0" index="0" speed="19.44" length="10.00" shape="111.60,210.00 111.60,220.00"/>
    </edge>

    <junction id="0" type="priority" x="110.00" y="110.00" incLanes="2i_0 3i_0 1i_0" intLanes=":0_0_0 :0_1_0 :0_9_0 :0_3_0 :0_4_0 :0_5_0 :0_6_0 :0_10_0 :0_11_0" shape="110.00,117.20 113.20,117.20 113.64,114.98 114.20,114.20 114.98,113.64 115.98,113.31 117.20,113.20 117.20,106.80 114.98,106.36 114.20,105.80 113.64,105.02 113.31,104.02 113.20,102.80 110.00,102.80 109.56,105.02 109.00,105.80 108.22,106.36 107.22,106.69 106.00,106.80 106.00,113.20 108.22,113.64 109.00,114.20 109.56,114.98 109.89,115.98">
        <request index="0" response="000000000" foes="010010000" cont="0"/>
        <request index="1" response="000000000" foes="110110000" cont="0"/>
        <request index="2" response="001001000" foes="001001000" cont="1"/>
        <request index="3" response="001000000" foes="001000100" cont="0"/>
        <request index="4" response="011000011" foes="011000011" cont="0"/>
        <request index="5" response="011000010" foes="111000010" cont="0"/>
        <request index="6" response="000000000" foes="000111100" cont="0"/>
        <request index="7" response="000000011" foes="000110011" cont="1"/>
        <request index="8" response="000100010" foes="000100010" cont="1"/>
    </junction>
    <junction id="1" type="priority" x="10.00" y="110.00" incLanes="1o_0 51o_0" intLanes=":1_0_0 :1_1_0" shape="10.00,113.20 10.00,106.80 10.00,113.20">
        <request index="0" response="00" foes="00" cont="0"/>
        <request index="1" response="00" foes="00" cont="0"/>
    </junction>
    <junction id="2" type="priority" x="210.00" y="110.00" incLanes="52o_0 2o_0" intLanes=":2_0_0 :2_1_0" shape="210.00,113.20 210.00,106.80 210.00,113.20">
        <request index="0" response="00" foes="00" cont="0"/>
        <request index="1" response="00" foes="00" cont="0"/>
    </junction>
    <junction id="3" type="priority" x="110.00" y="10.00" incLanes="53o_0" intLanes=":3_0_0" shape="110.00,10.00 113.20,10.00 110.00,10.00">
        <request index="0" response="0" foes="0" cont="0"/>
    </junction>
    <junction id="4" type="priority" x="110.00" y="210.00" incLanes="4o_0" intLanes=":4_0_0" shape="110.00,210.00 113.20,210.00 110.00,210.00">
        <request index="0" response="0" foes="0" cont="0"/>
    </junction>
    <junction id="51" type="priority" x="0.00" y="110.00" incLanes="51i_0" intLanes=":51_0_0" shape="0.00,110.00 0.00,113.20 0.00,110.00">
        <request index="0" response="0" foes="0" cont="0"/>
    </junction>
    <junction id="52" type="priority" x="220.00" y="110.00" incLanes="52i_0" intLanes=":52_0_0" shape="220.00,110.00 220.00,106.80 220.00,110.00">
        <request index="0" response="0" foes="0" cont="0"/>
    </junction>
    <junction id="53" type="dead_end" x="110.00" y="0.00" incLanes="" intLanes="" shape="110.00,0.00 113.20,0.00"/>
    <junction id="54" type="dead_end" x="110.00" y="220.00" incLanes="54i_0" intLanes="" shape="113.20,220.00 110.00,220.00"/>

    <junction id=":0_9_0" type="internal" x="115.60" y="110.00" incLanes=":0_2_0 1i_0 3i_0" intLanes=":0_3_0 :0_6_0"/>
    <junction id=":0_10_0" type="internal" x="109.56" y="110.00" incLanes=":0_7_0 2i_0" intLanes=":0_0_0 :0_1_0 :0_4_0 :0_5_0"/>
    <junction id=":0_11_0" type="internal" x="107.60" y="110.00" incLanes=":0_8_0 2i_0 3i_0" intLanes=":0_1_0 :0_5_0"/>

    <connection from="1i" to="2o" fromLane="0" toLane="0" via=":0_6_0" dir="s" state="M"/>
    <connection from="1i" to="4o" fromLane="0" toLane="0" via=":0_7_0" dir="l" state="m"/>
    <connection from="1i" to="1o" fromLane="0" toLane="0" via=":0_8_0" dir="t" state="m"/>
    <connection from="1o" to="51i" fromLane="0" toLane="0" via=":1_0_0" dir="s" state="M"/>
    <connection from="2i" to="4o" fromLane="0" toLane="0" via=":0_0_0" dir="r" state="M"/>
    <connection from="2i" to="1o" fromLane="0" toLane="0" via=":0_1_0" dir="s" state="M"/>
    <connection from="2i" to="2o" fromLane="0" toLane="0" via=":0_2_0" dir="t" state="m"/>
    <connection from="2o" to="52i" fromLane="0" toLane="0" via=":2_1_0" dir="s" state="M"/>
    <connection from="3i" to="2o" fromLane="0" toLane="0" via=":0_3_0" dir="r" state="m"/>
    <connection from="3i" to="4o" fromLane="0" toLane="0" via=":0_4_0" dir="s" state="m"/>
    <connection from="3i" to="1o" fromLane="0" toLane="0" via=":0_5_0" dir="l" state="m"/>
    <connection from="4o" to="54i" fromLane="0" toLane="0" via=":4_0_0" dir="s" state="M"/>
    <connection from="51i" to="51o" fromLane="0" toLane="0" via=":51_0_0" dir="t" state="M"/>
    <connection from="51o" to="1i" fromLane="0" toLane="0" via=":1_1_0" dir="s" state="M"/>
    <connection from="52i" to="52o" fromLane="0" toLane="0" via=":52_0_0" dir="t" state="M"/>
    <connection from="52o" to="2i" fromLane="0" toLane="0" via=":2_0_0" dir="s" state="M"/>
    <connection from="53o" to="3i" fromLane="0" toLane="0" via=":3_0_0" dir="s" state="M"/>

    <connection from=":0_0" to="4o" fromLane="0" toLane="0" dir="r" state="M"/>
    <connection from=":0_1" to="1o" fromLane="0" toLane="0" dir="s" state="M"/>
    <connection from=":0_2" to="2o" fromLane="0" toLane="0" via=":0_9_0" dir="t" state="m"/>
    <connection from=":0_9" to="2o" fromLane="0" toLane="0" dir="t" state="M"/>
    <connection from=":0_3" to="2o" fromLane="0" toLane="0" dir="r" state="M"/>
    <connection from=":0_4" to="4o" fromLane="0" toLane="0" dir="s" state="M"/>
    <connection from=":0_5" to="1o" fromLane="0" toLane="0" dir="l" state="M"/>
    <connection from=":0_6" to="2o" fromLane="0" toLane="0" dir="s" state="M"/>
    <connection from=":0_7" to="4o" fromLane="0" toLane="0" via=":0_10_0" dir="l" state="m"/>
    <connection from=":0_10" to="4o" fromLane="0" toLane="0" dir="l" state="M"/>
    <connection from=":0_8" to="1o" fromLane="0" toLane="0" via=":0_11_0" dir="t" state="m"/>
    <connection from=":0_11" to="1o" fromLane="0" toLane="0" dir="t" state="M"/>
    <connection from=":1_0" to="51i" fromLane="0" toLane="0" dir="s" state="M"/>
    <connection from=":1_1" to="1i" fromLane="0" toLane="0" dir="s" state="M"/>
    <connection from=":2_0" to="2i" fromLane="0" toLane="0" dir="s" state="M"/>
    <connection from=":2_1" to="52i" fromLane="0" toLane="0" dir="s" state="M"/>
    <connection from=":3_0" to="3i" fromLane="0" toLane="0" dir="s" state="M"/>
    <connection from=":4_0" to="54i" fromLane="0" toLane="0" dir="s" state="M"/>
    <connection from=":51_0" to="51o" fromLane="0" toLane="0" dir="t" state="M"/>
    <connection from=":52_0" to="52o" fromLane="0" toLane="0" dir="t" state="M"/>

</net>
