<?xml version="1.0" encoding="UTF-8"?>

<!-- generated on 06/17/19 10:57:39 by Eclipse SUMO netconvert Version 1.2.0
<configuration xmlns:xsi="http://www.w3.org/2001/XMLSchema-instance" xsi:noNamespaceSchemaLocation="http://sumo.dlr.de/xsd/netconvertConfiguration.xsd">

    <input>
        <node-files value="cross.nod.xml"/>
        <edge-files value="cross.edg.xml"/>
    </input>

    <output>
        <output-file value="cross.net.xml"/>
    </output>

</configuration>
-->

<net version="1.1" junctionCornerDetail="5" limitTurnSpeed="5.50" xmlns:xsi="http://www.w3.org/2001/XMLSchema-instance" xsi:noNamespaceSchemaLocation="http://sumo.dlr.de/xsd/net_file.xsd">

    <location netOffset="108.50,70.00" convBoundary="0.00,0.00,209.50,75.75" origBoundary="-108.50,-70.00,101.00,5.75" projParameter="!"/>

    <edge id=":0_0" function="internal">
        <lane id=":0_0_0" index="0" speed="10.00" length="25.03" shape="123.62,74.52 118.32,74.00 111.09,73.88 103.90,74.26 98.71,75.22"/>
    </edge>
    <edge id=":0_1" function="internal">
        <lane id=":0_1_0" index="0" speed="10.00" length="26.90" shape="123.62,74.52 118.18,73.14 110.68,70.82 103.28,68.23 98.16,65.99"/>
    </edge>
    <edge id=":0_2" function="internal">
        <lane id=":0_2_0" index="0" speed="6.37" length="15.44" shape="123.62,74.52 120.03,72.55 118.62,69.21 119.49,65.69 122.73,63.18"/>
    </edge>
    <edge id=":0_3" function="internal">
        <lane id=":0_3_0" index="0" speed="3.65" length="4.67" shape="123.62,74.52 122.59,73.51 122.35,72.65 122.89,71.94 124.22,71.38"/>
    </edge>
    <edge id=":0_4" function="internal">
        <lane id=":0_4_0" index="0" speed="5.52" length="11.11" shape="123.82,66.20 120.37,67.77 119.28,69.16 120.57,70.36 124.22,71.38"/>
    </edge>
    <edge id=":0_5" function="internal">
        <lane id=":0_5_0" index="0" speed="10.00" length="26.68" shape="123.82,66.20 98.71,75.22"/>
    </edge>
    <edge id=":0_6" function="internal">
        <lane id=":0_6_0" index="0" speed="10.00" length="11.94" shape="123.82,66.20 116.41,68.27 112.18,68.68"/>
    </edge>
    <edge id=":0_7" function="internal">
        <lane id=":0_7_0" index="0" speed="3.65" length="2.34" shape="123.82,66.20 122.42,65.85 121.77,65.23"/>
    </edge>
    <edge id=":0_20" function="internal">
        <lane id=":0_20_0" index="0" speed="10.00" length="14.50" shape="112.18,68.68 109.67,68.92 103.58,68.16 98.16,65.99"/>
    </edge>
    <edge id=":0_21" function="internal">
        <lane id=":0_21_0" index="0" speed="3.65" length="2.34" shape="121.77,65.23 121.88,64.34 122.73,63.18"/>
    </edge>
    <edge id=":0_8" function="internal">
        <lane id=":0_8_0" index="0" speed="7.35" length="14.91" shape="110.10,61.45 110.89,63.91 113.26,65.02 117.21,64.78 122.73,63.18"/>
    </edge>
    <edge id=":0_9" function="internal">
        <lane id=":0_9_0" index="0" speed="9.78" length="18.60" shape="110.10,61.45 110.98,64.78 113.63,67.55 118.04,69.74 124.22,71.38"/>
    </edge>
    <edge id=":0_10" function="internal">
        <lane id=":0_10_0" index="0" speed="10.00" length="19.14" shape="110.10,61.45 109.39,65.94 107.25,69.73 103.69,72.82 98.71,75.22"/>
    </edge>
    <edge id=":0_11" function="internal">
        <lane id=":0_11_0" index="0" speed="7.50" length="17.18" shape="110.10,61.45 109.35,65.97 107.11,68.23 103.38,68.24 98.16,65.99"/>
    </edge>
    <edge id=":0_12" function="internal">
        <lane id=":0_12_0" index="0" speed="10.00" length="23.69" shape="99.73,63.20 104.52,65.09 109.94,65.72 116.02,65.08 122.73,63.18"/>
    </edge>
    <edge id=":0_13" function="internal">
        <lane id=":0_13_0" index="0" speed="10.00" length="25.86" shape="99.73,63.20 104.71,65.39 111.77,67.86 118.94,70.05 124.22,71.38"/>
    </edge>
    <edge id=":0_14" function="internal">
        <lane id=":0_14_0" index="0" speed="7.39" length="18.43" shape="99.73,63.20 104.39,66.62 105.77,69.77 103.88,72.63 98.71,75.22"/>
    </edge>
    <edge id=":0_15" function="internal">
        <lane id=":0_15_0" index="0" speed="3.65" length="4.67" shape="99.73,63.20 100.38,64.49 100.34,65.38 99.60,65.88 98.16,65.99"/>
    </edge>
    <edge id=":0_16" function="internal">
        <lane id=":0_16_0" index="0" speed="5.51" length="9.54" shape="97.63,72.21 100.30,70.87 101.28,69.39 100.57,67.76 98.16,65.99"/>
    </edge>
    <edge id=":0_17" function="internal">
        <lane id=":0_17_0" index="0" speed="10.00" length="26.68" shape="97.63,72.21 122.73,63.18"/>
    </edge>
    <edge id=":0_18" function="internal">
        <lane id=":0_18_0" index="0" speed="10.00" length="7.89" shape="97.63,72.21 103.08,71.23 105.43,71.10"/>
    </edge>
    <edge id=":0_19" function="internal">
        <lane id=":0_19_0" index="0" speed="3.65" length="2.34" shape="97.63,72.21 99.03,72.55 99.68,73.17"/>
    </edge>
    <edge id=":0_22" function="internal">
        <lane id=":0_22_0" index="0" speed="10.00" length="18.82" shape="105.43,71.10 110.85,70.81 118.66,70.87 124.22,71.38"/>
    </edge>
    <edge id=":0_23" function="internal">
        <lane id=":0_23_0" index="0" speed="3.65" length="2.34" shape="99.68,73.17 99.57,74.06 98.71,75.22"/>
    </edge>
    <edge id=":1_0" function="internal">
        <lane id=":1_0_0" index="0" speed="3.65" length="4.67" shape="27.50,77.35 26.30,76.55 25.90,75.75 26.30,74.95 27.50,74.15"/>
    </edge>
    <edge id=":10_0" function="internal">
        <lane id=":10_0_0" index="0" speed="10.00" length="1.66" shape="93.57,77.07 93.10,77.23 92.77,77.31 92.43,77.34 91.94,77.35"/>
    </edge>
    <edge id=":10_1" function="internal">
        <lane id=":10_1_0" index="0" speed="10.00" length="0.55" shape="91.94,74.15 92.11,74.15 92.22,74.14 92.33,74.11 92.48,74.06"/>
    </edge>
    <edge id=":2_0" function="internal">
        <lane id=":2_0_0" index="0" speed="3.65" length="4.67" shape="0.00,58.30 -1.20,57.50 -1.60,56.70 -1.20,55.90 0.00,55.10"/>
    </edge>
    <edge id=":20_0" function="internal">
        <lane id=":20_0_0" index="0" speed="10.00" length="0.83" shape="84.95,58.51 84.73,58.39 84.57,58.33 84.40,58.30 84.16,58.30"/>
    </edge>
    <edge id=":20_1" function="internal">
        <lane id=":20_1_0" index="0" speed="7.65" length="2.49" shape="84.16,55.10 84.89,55.11 85.40,55.19 85.88,55.37 86.52,55.72"/>
    </edge>
    <edge id=":4_0" function="internal">
        <lane id=":4_0_0" index="0" speed="3.65" length="4.67" shape="209.50,62.65 210.70,63.45 211.10,64.25 210.70,65.05 209.50,65.85"/>
    </edge>
    <edge id=":40_0" function="internal">
        <lane id=":40_0_0" index="0" speed="10.00" length="0.55" shape="125.06,65.85 124.89,65.85 124.78,65.86 124.67,65.89 124.52,65.94"/>
    </edge>
    <edge id=":40_1" function="internal">
        <lane id=":40_1_0" index="0" speed="10.00" length="1.66" shape="123.43,62.93 123.90,62.77 124.23,62.69 124.57,62.66 125.06,62.65"/>
    </edge>
    <edge id=":5_0" function="internal">
        <lane id=":5_0_0" index="0" speed="3.65" length="4.67" shape="191.50,71.65 192.70,72.45 193.10,73.25 192.70,74.05 191.50,74.85"/>
    </edge>
    <edge id=":50_0" function="internal">
        <lane id=":50_0_0" index="0" speed="10.00" length="0.91" shape="125.80,74.85 125.53,74.85 125.35,74.84 125.17,74.81 124.90,74.76"/>
    </edge>
    <edge id=":50_1" function="internal">
        <lane id=":50_1_0" index="0" speed="10.00" length="0.30" shape="125.50,71.62 125.59,71.64 125.65,71.65 125.71,71.65 125.80,71.65"/>
    </edge>

    <edge id="1i1" from="1" to="10" priority="2">
        <lane id="1i1_0" index="0" speed="10.00" length="64.44" shape="27.50,74.15 91.94,74.15"/>
    </edge>
    <edge id="1i2" from="10" to="0" priority="2">
        <lane id="1i2_0" index="0" speed="10.00" length="5.47" shape="92.48,74.06 97.63,72.21"/>
    </edge>
    <edge id="1o1" from="0" to="10" priority="2">
        <lane id="1o1_0" index="0" speed="10.00" length="5.47" shape="98.71,75.22 93.57,77.07"/>
    </edge>
    <edge id="1o2" from="10" to="1" priority="2">
        <lane id="1o2_0" index="0" speed="10.00" length="64.44" shape="91.94,77.35 27.50,77.35"/>
    </edge>
    <edge id="2i1" from="2" to="20" priority="2">
        <lane id="2i1_0" index="0" speed="10.00" length="84.16" shape="0.00,55.10 84.16,55.10"/>
    </edge>
    <edge id="2i2" from="20" to="0" priority="2">
        <lane id="2i2_0" index="0" speed="10.00" length="15.18" shape="86.52,55.72 99.73,63.20"/>
    </edge>
    <edge id="2o1" from="0" to="20" priority="2">
        <lane id="2o1_0" index="0" speed="10.00" length="15.18" shape="98.16,65.99 84.95,58.51"/>
    </edge>
    <edge id="2o2" from="20" to="2" priority="2">
        <lane id="2o2_0" index="0" speed="10.00" length="84.16" shape="84.16,58.30 0.00,58.30"/>
    </edge>
    <edge id="3i" from="3" to="0" priority="2">
        <lane id="3i_0" index="0" speed="10.00" length="61.45" shape="110.10,0.00 110.10,61.45"/>
    </edge>
    <edge id="4i1" from="4" to="40" priority="2">
        <lane id="4i1_0" index="0" speed="10.00" length="84.44" shape="209.50,65.85 125.06,65.85"/>
    </edge>
    <edge id="4i2" from="40" to="0" priority="2">
        <lane id="4i2_0" index="0" speed="10.00" length="0.74" shape="124.52,65.94 123.82,66.20"/>
    </edge>
    <edge id="4o1" from="0" to="40" priority="2">
        <lane id="4o1_0" index="0" speed="10.00" length="0.74" shape="122.73,63.18 123.43,62.93"/>
    </edge>
    <edge id="4o2" from="40" to="4" priority="2">
        <lane id="4o2_0" index="0" speed="10.00" length="84.44" shape="125.06,62.65 209.50,62.65"/>
    </edge>
    <edge id="5i1" from="5" to="50" priority="2">
        <lane id="5i1_0" index="0" speed="10.00" length="65.70" shape="191.50,74.85 125.80,74.85"/>
    </edge>
    <edge id="5i2" from="50" to="0" priority="2">
        <lane id="5i2_0" index="0" speed="10.00" length="1.30" shape="124.90,74.76 123.62,74.52"/>
    </edge>
    <edge id="5o1" from="0" to="50" priority="2">
        <lane id="5o1_0" index="0" speed="10.00" length="1.30" shape="124.22,71.38 125.50,71.62"/>
    </edge>
    <edge id="5o2" from="50" to="5" priority="2">
        <lane id="5o2_0" index="0" speed="10.00" length="65.70" shape="125.80,71.65 191.50,71.65"/>
    </edge>

    <junction id="0" type="priority" x="108.50" y="70.00" incLanes="5i2_0 4i2_0 3i_0 2i2_0 1i2_0" intLanes=":0_0_0 :0_1_0 :0_2_0 :0_3_0 :0_4_0 :0_5_0 :0_20_0 :0_21_0 :0_8_0 :0_9_0 :0_10_0 :0_11_0 :0_12_0 :0_13_0 :0_14_0 :0_15_0 :0_16_0 :0_17_0 :0_22_0 :0_23_0" shape="123.32,76.09 124.52,69.81 124.36,67.70 122.19,61.68 118.99,62.72 116.36,63.33 114.32,63.51 112.87,63.25 111.99,62.57 111.70,61.45 108.50,61.45 107.61,63.66 106.51,63.98 104.95,63.77 102.96,63.05 100.52,61.81 97.37,67.38 98.89,68.62 99.04,69.19 98.79,69.73 98.14,70.23 97.09,70.70 99.25,76.72 104.15,75.11 107.90,74.25 111.10,74.03 114.34,74.35 118.22,75.07">
        <request index="0"  response="00000000000000100000" foes="10000100010000100000" cont="0"/>
        <request index="1"  response="01110000000001100000" foes="01111100110001100000" cont="0"/>
        <request index="2"  response="01100011001101100000" foes="01100011001111100000" cont="0"/>
        <request index="3"  response="01000010001000010000" foes="01000010001000010000" cont="0"/>
        <request index="4"  response="00000000000000000000" foes="01000010001000001000" cont="0"/>
        <request index="5"  response="00000000000000000000" foes="11000110011000000111" cont="0"/>
        <request index="6"  response="00110000000000000000" foes="00111110111000000110" cont="1"/>
        <request index="7"  response="00100001000100000100" foes="00100001000100000100" cont="1"/>
        <request index="8"  response="00100000000000000000" foes="00100001000010000100" cont="0"/>
        <request index="9"  response="01100010000001110000" foes="01100011000001111100" cont="0"/>
        <request index="10" response="01100010000001100011" foes="11100111000001100011" cont="0"/>
        <request index="11" response="00010010000001000010" foes="00011111000001000010" cont="0"/>
        <request index="12" response="00100000111100000000" foes="00100000111110000100" cont="0"/>
        <request index="13" response="01100000000001110000" foes="01100000111001111100" cont="0"/>
        <request index="14" response="01100000110001100011" foes="11100000110001100011" cont="0"/>
        <request index="15" response="00010000100001000010" foes="00010000100001000010" cont="0"/>
        <request index="16" response="00000000000000000000" foes="00001000100001000010" cont="0"/>
        <request index="17" response="00000000000000000000" foes="00000111011111000110" cont="0"/>
        <request index="18" response="00000000000000110000" foes="00000110011000111110" cont="1"/>
        <request index="19" response="00000100010000100001" foes="00000100010000100001" cont="1"/>
    </junction>
    <junction id="1" type="priority" x="27.50" y="75.75" incLanes="1o2_0" intLanes=":1_0_0" shape="27.50,75.75 27.50,78.95 27.50,75.75">
        <request index="0" response="0" foes="0" cont="0"/>
    </junction>
    <junction id="10" type="priority" x="92.50" y="75.75" incLanes="1o1_0 1i1_0" intLanes=":10_0_0 :10_1_0" shape="94.11,78.57 91.94,72.55 91.94,78.95 92.76,78.93 93.05,78.90 93.33,78.84 93.66,78.73">
        <request index="0" response="00" foes="00" cont="0"/>
        <request index="1" response="00" foes="00" cont="0"/>
    </junction>
    <junction id="2" type="priority" x="0.00" y="56.70" incLanes="2o2_0" intLanes=":2_0_0" shape="0.00,56.70 0.00,59.90 0.00,56.70">
        <request index="0" response="0" foes="0" cont="0"/>
    </junction>
    <junction id="20" type="priority" x="85.00" y="56.70" incLanes="2o1_0 2i1_0" intLanes=":20_0_0 :20_1_0" shape="84.16,59.90 87.31,54.33 86.22,53.76 85.81,53.61 85.38,53.54 84.86,53.51 84.16,53.50">
        <request index="0" response="00" foes="00" cont="0"/>
        <request index="1" response="00" foes="00" cont="0"/>
    </junction>
    <junction id="3" type="dead_end" x="108.50" y="0.00" incLanes="" intLanes="" shape="108.50,0.00 111.70,0.00"/>
    <junction id="4" type="priority" x="209.50" y="64.25" incLanes="4o2_0" intLanes=":4_0_0" shape="209.50,64.25 209.50,61.05 209.50,64.25">
        <request index="0" response="0" foes="0" cont="0"/>
    </junction>
    <junction id="40" type="priority" x="124.50" y="64.25" incLanes="4i1_0 4o1_0" intLanes=":40_0_0 :40_1_0" shape="125.06,67.45 125.06,61.05 124.24,61.07 123.95,61.10 123.67,61.16 123.34,61.27 122.89,61.43">
        <request index="0" response="00" foes="00" cont="0"/>
        <request index="1" response="00" foes="00" cont="0"/>
    </junction>
    <junction id="5" type="priority" x="191.50" y="73.25" incLanes="5o2_0" intLanes=":5_0_0" shape="191.50,73.25 191.50,70.05 191.50,73.25">
        <request index="0" response="0" foes="0" cont="0"/>
    </junction>
    <junction id="50" type="priority" x="125.50" y="73.25" incLanes="5i1_0 5o1_0" intLanes=":50_0_0 :50_1_0" shape="125.80,76.45 125.80,70.05 124.60,76.34 125.04,76.42 125.20,76.44 125.36,76.45 125.55,76.45">
        <request index="0" response="00" foes="00" cont="0"/>
        <request index="1" response="00" foes="00" cont="0"/>
    </junction>

    <junction id=":0_20_0" type="internal" x="112.18" y="68.68" incLanes=":0_6_0 1i2_0" intLanes=":0_1_0 :0_2_0 :0_9_0 :0_10_0 :0_11_0 :0_13_0 :0_14_0 :0_15_0 :0_16_0 :0_17_0"/>
    <junction id=":0_21_0" type="internal" x="121.77" y="65.23" incLanes=":0_7_0 1i2_0 2i2_0 3i_0 5i2_0" intLanes=":0_2_0 :0_8_0 :0_12_0 :0_17_0"/>
    <junction id=":0_22_0" type="internal" x="105.43" y="71.10" incLanes=":0_18_0 4i2_0" intLanes=":0_1_0 :0_2_0 :0_3_0 :0_4_0 :0_5_0 :0_9_0 :0_10_0 :0_13_0 :0_14_0"/>
    <junction id=":0_23_0" type="internal" x="99.68" y="73.17" incLanes=":0_19_0 2i2_0 3i_0 4i2_0 5i2_0" intLanes=":0_0_0 :0_5_0 :0_10_0 :0_14_0"/>

    <connection from="1i1" to="1i2" fromLane="0" toLane="0" via=":10_1_0" dir="s" state="M"/>
    <connection from="1i2" to="2o1" fromLane="0" toLane="0" via=":0_16_0" dir="r" state="M"/>
    <connection from="1i2" to="4o1" fromLane="0" toLane="0" via=":0_17_0" dir="s" state="M"/>
    <connection from="1i2" to="5o1" fromLane="0" toLane="0" via=":0_18_0" dir="L" state="m"/>
    <connection from="1i2" to="1o1" fromLane="0" toLane="0" via=":0_19_0" dir="t" state="m"/>
    <connection from="1o1" to="1o2" fromLane="0" toLane="0" via=":10_0_0" dir="s" state="M"/>
    <connection from="1o2" to="1i1" fromLane="0" toLane="0" via=":1_0_0" dir="t" state="M"/>
    <connection from="2i1" to="2i2" fromLane="0" toLane="0" via=":20_1_0" dir="s" state="M"/>
    <connection from="2i2" to="4o1" fromLane="0" toLane="0" via=":0_12_0" dir="r" state="m"/>
    <connection from="2i2" to="5o1" fromLane="0" toLane="0" via=":0_13_0" dir="s" state="m"/>
    <connection from="2i2" to="1o1" fromLane="0" toLane="0" via=":0_14_0" dir="l" state="m"/>
    <connection from="2i2" to="2o1" fromLane="0" toLane="0" via=":0_15_0" dir="t" state="m"/>
    <connection from="2o1" to="2o2" fromLane="0" toLane="0" via=":20_0_0" dir="s" state="M"/>
    <connection from="2o2" to="2i1" fromLane="0" toLane="0" via=":2_0_0" dir="t" state="M"/>
    <connection from="3i" to="4o1" fromLane="0" toLane="0" via=":0_8_0" dir="r" state="m"/>
    <connection from="3i" to="5o1" fromLane="0" toLane="0" via=":0_9_0" dir="R" state="m"/>
    <connection from="3i" to="1o1" fromLane="0" toLane="0" via=":0_10_0" dir="L" state="m"/>
    <connection from="3i" to="2o1" fromLane="0" toLane="0" via=":0_11_0" dir="l" state="m"/>
    <connection from="4i1" to="4i2" fromLane="0" toLane="0" via=":40_0_0" dir="s" state="M"/>
    <connection from="4i2" to="5o1" fromLane="0" toLane="0" via=":0_4_0" dir="r" state="M"/>
    <connection from="4i2" to="1o1" fromLane="0" toLane="0" via=":0_5_0" dir="s" state="M"/>
    <connection from="4i2" to="2o1" fromLane="0" toLane="0" via=":0_6_0" dir="l" state="m"/>
    <connection from="4i2" to="4o1" fromLane="0" toLane="0" via=":0_7_0" dir="t" state="m"/>
    <connection from="4o1" to="4o2" fromLane="0" toLane="0" via=":40_1_0" dir="s" state="M"/>
    <connection from="4o2" to="4i1" fromLane="0" toLane="0" via=":4_0_0" dir="t" state="M"/>
    <connection from="5i1" to="5i2" fromLane="0" toLane="0" via=":50_0_0" dir="s" state="M"/>
    <connection from="5i2" to="1o1" fromLane="0" toLane="0" via=":0_0_0" dir="s" state="m"/>
    <connection from="5i2" to="2o1" fromLane="0" toLane="0" via=":0_1_0" dir="s" state="m"/>
    <connection from="5i2" to="4o1" fromLane="0" toLane="0" via=":0_2_0" dir="l" state="m"/>
    <connection from="5i2" to="5o1" fromLane="0" toLane="0" via=":0_3_0" dir="t" state="m"/>
    <connection from="5o1" to="5o2" fromLane="0" toLane="0" via=":50_1_0" dir="s" state="M"/>
    <connection from="5o2" to="5i1" fromLane="0" toLane="0" via=":5_0_0" dir="t" state="M"/>

    <connection from=":0_0" to="1o1" fromLane="0" toLane="0" dir="s" state="M"/>
    <connection from=":0_1" to="2o1" fromLane="0" toLane="0" dir="s" state="M"/>
    <connection from=":0_2" to="4o1" fromLane="0" toLane="0" dir="l" state="M"/>
    <connection from=":0_3" to="5o1" fromLane="0" toLane="0" dir="t" state="M"/>
    <connection from=":0_4" to="5o1" fromLane="0" toLane="0" dir="r" state="M"/>
    <connection from=":0_5" to="1o1" fromLane="0" toLane="0" dir="s" state="M"/>
    <connection from=":0_6" to="2o1" fromLane="0" toLane="0" via=":0_20_0" dir="l" state="m"/>
    <connection from=":0_20" to="2o1" fromLane="0" toLane="0" dir="l" state="M"/>
    <connection from=":0_7" to="4o1" fromLane="0" toLane="0" via=":0_21_0" dir="t" state="m"/>
    <connection from=":0_21" to="4o1" fromLane="0" toLane="0" dir="t" state="M"/>
    <connection from=":0_8" to="4o1" fromLane="0" toLane="0" dir="r" state="M"/>
    <connection from=":0_9" to="5o1" fromLane="0" toLane="0" dir="R" state="M"/>
    <connection from=":0_10" to="1o1" fromLane="0" toLane="0" dir="L" state="M"/>
    <connection from=":0_11" to="2o1" fromLane="0" toLane="0" dir="l" state="M"/>
    <connection from=":0_12" to="4o1" fromLane="0" toLane="0" dir="r" state="M"/>
    <connection from=":0_13" to="5o1" fromLane="0" toLane="0" dir="s" state="M"/>
    <connection from=":0_14" to="1o1" fromLane="0" toLane="0" dir="l" state="M"/>
    <connection from=":0_15" to="2o1" fromLane="0" toLane="0" dir="t" state="M"/>
    <connection from=":0_16" to="2o1" fromLane="0" toLane="0" dir="r" state="M"/>
    <connection from=":0_17" to="4o1" fromLane="0" toLane="0" dir="s" state="M"/>
    <connection from=":0_18" to="5o1" fromLane="0" toLane="0" via=":0_22_0" dir="L" state="m"/>
    <connection from=":0_22" to="5o1" fromLane="0" toLane="0" dir="L" state="M"/>
    <connection from=":0_19" to="1o1" fromLane="0" toLane="0" via=":0_23_0" dir="t" state="m"/>
    <connection from=":0_23" to="1o1" fromLane="0" toLane="0" dir="t" state="M"/>
    <connection from=":1_0" to="1i1" fromLane="0" toLane="0" dir="t" state="M"/>
    <connection from=":10_0" to="1o2" fromLane="0" toLane="0" dir="s" state="M"/>
    <connection from=":10_1" to="1i2" fromLane="0" toLane="0" dir="s" state="M"/>
    <connection from=":2_0" to="2i1" fromLane="0" toLane="0" dir="t" state="M"/>
    <connection from=":20_0" to="2o2" fromLane="0" toLane="0" dir="s" state="M"/>
    <connection from=":20_1" to="2i2" fromLane="0" toLane="0" dir="s" state="M"/>
    <connection from=":4_0" to="4i1" fromLane="0" toLane="0" dir="t" state="M"/>
    <connection from=":40_0" to="4i2" fromLane="0" toLane="0" dir="s" state="M"/>
    <connection from=":40_1" to="4o2" fromLane="0" toLane="0" dir="s" state="M"/>
    <connection from=":5_0" to="5i1" fromLane="0" toLane="0" dir="t" state="M"/>
    <connection from=":50_0" to="5i2" fromLane="0" toLane="0" dir="s" state="M"/>
    <connection from=":50_1" to="5o2" fromLane="0" toLane="0" dir="s" state="M"/>

</net>
