<edges>
  <edge id="Stationsplein0to1" from="Stationsplein0" to="Stationsplein1" />
</edges>
