<nodes>
  <node id="Stationsplein0" x="5.480361" y="51.441712" />
  <node id="Stationsplein1" x="5.479754" y="51.441630" />
</nodes>
