<?xml version="1.0" encoding="UTF-8"?>

<!-- generated on Tue Aug  4 15:15:21 2020 by Eclipse SUMO netconvert Version 1.6.0
<configuration xmlns:xsi="http://www.w3.org/2001/XMLSchema-instance" xsi:noNamespaceSchemaLocation="http://sumo.dlr.de/xsd/netconvertConfiguration.xsd">

    <input>
        <node-files value="stationsplein.nod.xml"/>
        <edge-files value="stationsplein.edg.xml"/>
        <connection-files value="stationsplein.con.xml"/>
    </input>

    <output>
        <output-file value="stationsplein.net.xml"/>
    </output>

    <projection>
        <simple-projection value="true"/>
    </projection>

    <report>
        <aggregate-warnings value="5"/>
    </report>

</configuration>
-->

<net version="1.6" junctionCornerDetail="5" limitTurnSpeed="5.50" xmlns:xsi="http://www.w3.org/2001/XMLSchema-instance" xsi:noNamespaceSchemaLocation="http://sumo.dlr.de/xsd/net_file.xsd">

    <location netOffset="-380153.45,-5717004.99" convBoundary="0.00,0.00,149.69,59.57" origBoundary="5.478725,51.441522,5.480914,51.442058" projParameter="-"/>

    <edge id=":StationspleinNE_0" function="internal">
        <lane id=":StationspleinNE_0_0" index="0" speed="3.92" length="2.26" shape="101.84,60.03 101.59,60.58 101.22,60.95 100.73,61.15 100.12,61.16"/>
    </edge>
    <edge id=":StationspleinNW_0" function="internal">
        <lane id=":StationspleinNW_0_0" index="0" speed="3.91" length="2.50" shape="67.11,57.27 66.45,57.09 66.00,56.75 65.75,56.24 65.70,55.56"/>
    </edge>
    <edge id=":StationspleinSE_0" function="internal">
        <lane id=":StationspleinSE_0_0" index="0" speed="13.89" length="10.60" shape="116.24,30.24 105.88,27.98"/>
    </edge>
    <edge id=":StationspleinSE_1" function="internal">
        <lane id=":StationspleinSE_1_0" index="0" speed="7.42" length="11.31" shape="116.92,27.11 114.66,27.17 112.69,28.39 111.01,30.78 109.61,34.33"/>
    </edge>
    <edge id=":StationspleinSE_2" function="internal">
        <lane id=":StationspleinSE_2_0" index="0" speed="13.89" length="10.59" shape="116.92,27.11 106.57,24.85"/>
        <lane id=":StationspleinSE_2_1" index="1" speed="13.89" length="10.59" shape="117.60,23.99 107.26,21.73"/>
    </edge>
    <edge id=":StationspleinSW_0" function="internal">
        <lane id=":StationspleinSW_0_0" index="0" speed="13.89" length="10.72" shape="73.69,20.89 63.31,18.89"/>
        <lane id=":StationspleinSW_0_1" index="1" speed="13.89" length="10.72" shape="74.37,17.77 63.85,15.74"/>
        <lane id=":StationspleinSW_0_2" index="2" speed="13.89" length="10.72" shape="75.06,14.64 64.38,12.58"/>
    </edge>
    <edge id=":StationspleinSW_3" function="internal">
        <lane id=":StationspleinSW_3_0" index="0" speed="7.45" length="11.29" shape="67.93,25.18 67.91,21.35 67.23,18.50 65.87,16.63 63.85,15.74"/>
    </edge>

    <edge id="StationspleinNEtoNW" from="StationspleinNE" to="StationspleinNW" priority="-1">
        <lane id="StationspleinNEtoNW_0" index="0" speed="13.89" length="33.24" shape="100.12,61.16 67.11,57.27"/>
    </edge>
    <edge id="StationspleinNWtoSW" from="StationspleinNW" to="StationspleinSW" priority="-1">
        <lane id="StationspleinNWtoSW_0" index="0" speed="13.89" length="30.46" shape="65.70,55.56 67.93,25.18"/>
    </edge>
    <edge id="StationspleinSEtoNE" from="StationspleinSE" to="StationspleinNE" priority="-1">
        <lane id="StationspleinSEtoNE_0" index="0" speed="13.89" length="26.85" shape="109.61,34.33 101.84,60.03"/>
    </edge>
    <edge id="StationspleinSEtoSW" from="StationspleinSE" to="StationspleinSW" priority="-1">
        <lane id="StationspleinSEtoSW_0" index="0" speed="13.89" length="32.97" shape="105.88,27.98 73.69,20.89"/>
        <lane id="StationspleinSEtoSW_1" index="1" speed="13.89" length="32.97" shape="106.57,24.85 74.37,17.77"/>
        <lane id="StationspleinSEtoSW_2" index="2" speed="13.89" length="32.97" shape="107.26,21.73 75.06,14.64"/>
    </edge>
    <edge id="StationspleinSWtoStationswegW" from="StationspleinSW" to="StationswegW" priority="-1">
        <lane id="StationspleinSWtoStationswegW_0" index="0" speed="13.89" length="65.58" shape="63.31,18.89 -1.34,7.89"/>
        <lane id="StationspleinSWtoStationswegW_1" index="1" speed="13.89" length="65.58" shape="63.85,15.74 -0.81,4.73"/>
        <lane id="StationspleinSWtoStationswegW_2" index="2" speed="13.89" length="65.58" shape="64.38,12.58 -0.27,1.58"/>
    </edge>
    <edge id="StationswegEtoStationspleinSE" from="StationswegE" to="StationspleinSE" priority="-1">
        <lane id="StationswegEtoStationspleinSE_0" index="0" speed="13.89" length="32.50" shape="147.99,37.16 116.24,30.24"/>
        <lane id="StationswegEtoStationspleinSE_1" index="1" speed="13.89" length="32.50" shape="148.67,34.03 116.92,27.11"/>
        <lane id="StationswegEtoStationspleinSE_2" index="2" speed="13.89" length="32.50" shape="149.35,30.90 117.60,23.99"/>
    </edge>

    <junction id="StationspleinNE" type="unregulated" x="100.31" y="59.57" incLanes="StationspleinSEtoNE_0" intLanes=":StationspleinNE_0_0" shape="103.38,60.49 100.31,59.57 99.94,62.75 101.50,62.64 102.13,62.34 102.65,61.89 103.06,61.27"/>
    <junction id="StationspleinNW" type="unregulated" x="67.30" y="55.68" incLanes="StationspleinNEtoNW_0" intLanes=":StationspleinNW_0_0" shape="66.92,58.86 67.30,55.68 64.11,55.45 64.32,57.18 64.70,57.83 65.26,58.32 66.00,58.66"/>
    <junction id="StationspleinSE" type="unregulated" x="111.94" y="21.12" incLanes="StationswegEtoStationspleinSE_0 StationswegEtoStationspleinSE_1 StationswegEtoStationspleinSE_2" intLanes=":StationspleinSE_0_0 :StationspleinSE_1_0 :StationspleinSE_2_0 :StationspleinSE_2_1" shape="115.90,31.80 117.94,22.42 107.60,20.16 105.54,29.54 107.43,30.37 107.98,31.02 108.27,31.82 108.31,32.77 108.08,33.87 111.14,34.80 112.18,32.78 112.90,32.16 113.76,31.79 114.76,31.67"/>
    <junction id="StationspleinSW" type="unregulated" x="70.50" y="12.00" incLanes="StationspleinSEtoSW_0 StationspleinSEtoSW_1 StationspleinSEtoSW_2 StationspleinNWtoSW_0" intLanes=":StationspleinSW_0_0 :StationspleinSW_0_1 :StationspleinSW_0_2 :StationspleinSW_3_0" shape="73.34,22.46 75.40,13.08 64.65,11.01 63.04,20.47 65.00,21.25 65.66,21.93 66.10,22.79 66.32,23.83 66.33,25.07 69.53,25.30 70.07,23.37 70.61,22.78 71.34,22.43 72.25,22.32"/>
    <junction id="StationswegE" type="dead_end" x="149.69" y="29.34" incLanes="" intLanes="" shape="149.69,29.34 147.65,38.72"/>
    <junction id="StationswegW" type="dead_end" x="0.00" y="0.00" incLanes="StationspleinSWtoStationswegW_0 StationspleinSWtoStationswegW_1 StationspleinSWtoStationswegW_2" intLanes="" shape="-1.61,9.46 -0.00,-0.00"/>

    <connection from="StationspleinNEtoNW" to="StationspleinNWtoSW" fromLane="0" toLane="0" via=":StationspleinNW_0_0" dir="l" state="M"/>
    <connection from="StationspleinNWtoSW" to="StationspleinSWtoStationswegW" fromLane="0" toLane="1" via=":StationspleinSW_3_0" dir="r" state="M"/>
    <connection from="StationspleinSEtoNE" to="StationspleinNEtoNW" fromLane="0" toLane="0" via=":StationspleinNE_0_0" dir="l" state="M"/>
    <connection from="StationspleinSEtoSW" to="StationspleinSWtoStationswegW" fromLane="0" toLane="0" via=":StationspleinSW_0_0" dir="s" state="M"/>
    <connection from="StationspleinSEtoSW" to="StationspleinSWtoStationswegW" fromLane="1" toLane="1" via=":StationspleinSW_0_1" dir="s" state="M"/>
    <connection from="StationspleinSEtoSW" to="StationspleinSWtoStationswegW" fromLane="2" toLane="2" via=":StationspleinSW_0_2" dir="s" state="M"/>
    <connection from="StationswegEtoStationspleinSE" to="StationspleinSEtoSW" fromLane="0" toLane="0" via=":StationspleinSE_0_0" dir="s" state="M"/>
    <connection from="StationswegEtoStationspleinSE" to="StationspleinSEtoNE" fromLane="1" toLane="0" via=":StationspleinSE_1_0" dir="r" state="M"/>
    <connection from="StationswegEtoStationspleinSE" to="StationspleinSEtoSW" fromLane="1" toLane="1" via=":StationspleinSE_2_0" dir="s" state="M"/>
    <connection from="StationswegEtoStationspleinSE" to="StationspleinSEtoSW" fromLane="2" toLane="2" via=":StationspleinSE_2_1" dir="s" state="M"/>

    <connection from=":StationspleinNE_0" to="StationspleinNEtoNW" fromLane="0" toLane="0" dir="l" state="M"/>
    <connection from=":StationspleinNW_0" to="StationspleinNWtoSW" fromLane="0" toLane="0" dir="l" state="M"/>
    <connection from=":StationspleinSE_0" to="StationspleinSEtoSW" fromLane="0" toLane="0" dir="s" state="M"/>
    <connection from=":StationspleinSE_1" to="StationspleinSEtoNE" fromLane="0" toLane="0" dir="r" state="M"/>
    <connection from=":StationspleinSE_2" to="StationspleinSEtoSW" fromLane="0" toLane="1" dir="s" state="M"/>
    <connection from=":StationspleinSE_2" to="StationspleinSEtoSW" fromLane="1" toLane="2" dir="s" state="M"/>
    <connection from=":StationspleinSW_0" to="StationspleinSWtoStationswegW" fromLane="0" toLane="0" dir="s" state="M"/>
    <connection from=":StationspleinSW_0" to="StationspleinSWtoStationswegW" fromLane="1" toLane="1" dir="s" state="M"/>
    <connection from=":StationspleinSW_0" to="StationspleinSWtoStationswegW" fromLane="2" toLane="2" dir="s" state="M"/>
    <connection from=":StationspleinSW_3" to="StationspleinSWtoStationswegW" fromLane="0" toLane="1" dir="r" state="M"/>

</net>
