<configuration>
  <input>
    <net-file value="stationsplein.net.xml"/>
    <route-files value="stationsplein-pedestrian.rou.xml"/>
    <gui-settings-file value="stationsplein.settings.xml"/>
  </input>
  <time>
    <begin value="0" />
    <end value="10000" />
  </time>
</configuration>
<!-- vim:ft=xml
-->

