<?xml version="1.0" encoding="UTF-8"?>

<!-- generated on 06/03/19 16:32:42 by Eclipse SUMO netconvert Version 1.2.0
<configuration xmlns:xsi="http://www.w3.org/2001/XMLSchema-instance" xsi:noNamespaceSchemaLocation="http://sumo.dlr.de/xsd/netconvertConfiguration.xsd">

    <input>
        <node-files value="cross.nod.xml"/>
        <edge-files value="cross.edg.xml"/>
    </input>

    <output>
        <output-file value="cross.net.xml"/>
    </output>

</configuration>
-->

<net version="1.1" junctionCornerDetail="5" limitTurnSpeed="5.50" xmlns:xsi="http://www.w3.org/2001/XMLSchema-instance" xsi:noNamespaceSchemaLocation="http://sumo.dlr.de/xsd/net_file.xsd">

    <location netOffset="200.00,200.00" convBoundary="0.00,0.00,400.00,350.00" origBoundary="-200.00,-200.00,200.00,150.00" projParameter="!"/>

    <edge id=":0_0" function="internal">
        <lane id=":0_0_0" index="0" speed="10.00" length="20.98" shape="207.16,209.42 203.05,206.00 198.53,203.56 193.60,202.09 188.27,201.60"/>
    </edge>
    <edge id=":0_1" function="internal">
        <lane id=":0_1_0" index="0" speed="10.00" length="23.45" shape="207.16,209.42 190.58,192.84"/>
    </edge>
    <edge id=":0_2" function="internal">
        <lane id=":0_2_0" index="0" speed="7.42" length="7.71" shape="207.16,209.42 203.31,204.60 203.08,203.08"/>
    </edge>
    <edge id=":0_3" function="internal">
        <lane id=":0_3_0" index="0" speed="3.65" length="2.34" shape="207.16,209.42 206.88,208.01 207.16,207.16"/>
    </edge>
    <edge id=":0_20" function="internal">
        <lane id=":0_20_0" index="0" speed="7.42" length="11.60" shape="203.08,203.08 202.79,201.16 205.59,199.09 211.73,198.40"/>
    </edge>
    <edge id=":0_21" function="internal">
        <lane id=":0_21_0" index="0" speed="3.65" length="2.34" shape="207.16,207.16 208.01,206.88 209.42,207.16"/>
    </edge>
    <edge id=":0_4" function="internal">
        <lane id=":0_4_0" index="0" speed="5.47" length="9.74" shape="211.73,201.60 208.63,201.95 207.22,202.99 207.48,204.73 209.42,207.16"/>
    </edge>
    <edge id=":0_5" function="internal">
        <lane id=":0_5_0" index="0" speed="10.00" length="23.45" shape="211.73,201.60 188.27,201.60"/>
    </edge>
    <edge id=":0_6" function="internal">
        <lane id=":0_6_0" index="0" speed="10.00" length="23.26" shape="211.73,201.60 206.42,200.85 200.47,198.86 194.86,196.06 190.58,192.84"/>
    </edge>
    <edge id=":0_7" function="internal">
        <lane id=":0_7_0" index="0" speed="3.65" length="4.67" shape="211.73,201.60 210.53,200.80 210.13,200.00 210.53,199.20 211.73,198.40"/>
    </edge>
    <edge id=":0_8" function="internal">
        <lane id=":0_8_0" index="0" speed="7.91" length="13.85" shape="201.60,191.47 202.23,194.50 204.13,196.67 207.30,197.97 211.73,198.40"/>
    </edge>
    <edge id=":0_9" function="internal">
        <lane id=":0_9_0" index="0" speed="10.00" length="17.97" shape="201.60,191.47 202.09,195.40 203.56,199.33 206.00,203.25 209.42,207.16"/>
    </edge>
    <edge id=":0_10" function="internal">
        <lane id=":0_10_0" index="0" speed="9.17" length="18.98" shape="201.60,191.47 200.77,195.90 198.27,199.07 194.10,200.97 188.27,201.60"/>
    </edge>
    <edge id=":0_11" function="internal">
        <lane id=":0_11_0" index="0" speed="7.09" length="17.44" shape="201.60,191.47 200.91,196.21 198.84,198.01 195.40,196.89 190.58,192.84"/>
    </edge>
    <edge id=":0_12" function="internal">
        <lane id=":0_12_0" index="0" speed="10.00" length="20.98" shape="192.84,190.58 196.95,194.00 201.47,196.44 206.40,197.91 211.73,198.40"/>
    </edge>
    <edge id=":0_13" function="internal">
        <lane id=":0_13_0" index="0" speed="10.00" length="23.45" shape="192.84,190.58 209.42,207.16"/>
    </edge>
    <edge id=":0_14" function="internal">
        <lane id=":0_14_0" index="0" speed="7.42" length="7.71" shape="192.84,190.58 196.69,195.40 196.92,196.92"/>
    </edge>
    <edge id=":0_15" function="internal">
        <lane id=":0_15_0" index="0" speed="3.65" length="2.34" shape="192.84,190.58 193.12,191.99 192.84,192.84"/>
    </edge>
    <edge id=":0_22" function="internal">
        <lane id=":0_22_0" index="0" speed="7.42" length="11.60" shape="196.92,196.92 197.21,198.84 194.41,200.91 188.27,201.60"/>
    </edge>
    <edge id=":0_23" function="internal">
        <lane id=":0_23_0" index="0" speed="3.65" length="2.34" shape="192.84,192.84 191.99,193.12 190.58,192.84"/>
    </edge>
    <edge id=":0_16" function="internal">
        <lane id=":0_16_0" index="0" speed="5.47" length="9.74" shape="188.27,198.40 191.37,198.05 192.78,197.01 192.52,195.27 190.58,192.84"/>
    </edge>
    <edge id=":0_17" function="internal">
        <lane id=":0_17_0" index="0" speed="10.00" length="23.45" shape="188.27,198.40 211.73,198.40"/>
    </edge>
    <edge id=":0_18" function="internal">
        <lane id=":0_18_0" index="0" speed="10.00" length="23.26" shape="188.27,198.40 193.58,199.15 199.53,201.14 205.14,203.94 209.42,207.16"/>
    </edge>
    <edge id=":0_19" function="internal">
        <lane id=":0_19_0" index="0" speed="3.65" length="4.67" shape="188.27,198.40 189.47,199.20 189.87,200.00 189.47,200.80 188.27,201.60"/>
    </edge>
    <edge id=":1_0" function="internal">
        <lane id=":1_0_0" index="0" speed="3.65" length="4.67" shape="0.00,201.60 -1.20,200.80 -1.60,200.00 -1.20,199.20 0.00,198.40"/>
    </edge>
    <edge id=":2_0" function="internal">
        <lane id=":2_0_0" index="0" speed="3.65" length="4.67" shape="48.87,51.13 48.59,49.72 48.87,48.87 49.72,48.59 51.13,48.87"/>
    </edge>
    <edge id=":4_0" function="internal">
        <lane id=":4_0_0" index="0" speed="3.65" length="4.67" shape="400.00,198.40 401.20,199.20 401.60,200.00 401.20,200.80 400.00,201.60"/>
    </edge>
    <edge id=":5_0" function="internal">
        <lane id=":5_0_0" index="0" speed="3.65" length="4.67" shape="351.13,348.87 351.41,350.28 351.13,351.13 350.28,351.41 348.87,351.13"/>
    </edge>

    <edge id="1i" from="1" to="0" priority="2">
        <lane id="1i_0" index="0" speed="10.00" length="188.27" shape="0.00,198.40 188.27,198.40"/>
    </edge>
    <edge id="1o" from="0" to="1" priority="2">
        <lane id="1o_0" index="0" speed="10.00" length="188.27" shape="188.27,201.60 0.00,201.60"/>
    </edge>
    <edge id="2i" from="2" to="0" priority="2">
        <lane id="2i_0" index="0" speed="10.00" length="200.41" shape="51.13,48.87 192.84,190.58"/>
    </edge>
    <edge id="2o" from="0" to="2" priority="2">
        <lane id="2o_0" index="0" speed="10.00" length="200.41" shape="190.58,192.84 48.87,51.13"/>
    </edge>
    <edge id="3i" from="3" to="0" priority="2">
        <lane id="3i_0" index="0" speed="10.00" length="191.47" shape="201.60,0.00 201.60,191.47"/>
    </edge>
    <edge id="4i" from="4" to="0" priority="2">
        <lane id="4i_0" index="0" speed="10.00" length="188.27" shape="400.00,201.60 211.73,201.60"/>
    </edge>
    <edge id="4o" from="0" to="4" priority="2">
        <lane id="4o_0" index="0" speed="10.00" length="188.27" shape="211.73,198.40 400.00,198.40"/>
    </edge>
    <edge id="5i" from="5" to="0" priority="2">
        <lane id="5i_0" index="0" speed="10.00" length="200.41" shape="348.87,351.13 207.16,209.42"/>
    </edge>
    <edge id="5o" from="0" to="5" priority="2">
        <lane id="5o_0" index="0" speed="10.00" length="200.41" shape="209.42,207.16 351.13,348.87"/>
    </edge>

    <junction id="0" type="priority" x="200.00" y="200.00" incLanes="5i_0 4i_0 3i_0 2i_0 1i_0" intLanes=":0_0_0 :0_1_0 :0_20_0 :0_21_0 :0_4_0 :0_5_0 :0_6_0 :0_7_0 :0_8_0 :0_9_0 :0_10_0 :0_11_0 :0_12_0 :0_13_0 :0_22_0 :0_23_0 :0_16_0 :0_17_0 :0_18_0 :0_19_0" shape="206.03,210.55 210.55,206.03 209.43,204.46 209.43,203.91 209.82,203.51 210.58,203.28 211.73,203.20 211.73,196.80 209.12,196.65 206.99,196.21 205.33,195.47 204.15,194.43 203.44,193.10 203.20,191.47 200.00,191.47 199.33,193.03 198.49,192.97 197.32,192.35 195.81,191.18 193.97,189.45 189.45,193.97 190.57,195.54 190.57,196.09 190.18,196.49 189.42,196.72 188.27,196.80 188.27,203.20 191.66,203.40 194.87,204.02 197.91,205.04 200.79,206.47 203.49,208.31">
        <request index="0"  response="00000000000000000000" foes="10000100010000100000" cont="0"/>
        <request index="1"  response="00000000000000000000" foes="01111100110001100000" cont="0"/>
        <request index="2"  response="00000011000000000000" foes="01100011001111100000" cont="1"/>
        <request index="3"  response="01000010001000010000" foes="01000010001000010000" cont="1"/>
        <request index="4"  response="00000010000000000000" foes="01000010001000001000" cont="0"/>
        <request index="5"  response="00000110000000000111" foes="11000110011000000111" cont="0"/>
        <request index="6"  response="00110110000000000110" foes="00111110111000000110" cont="0"/>
        <request index="7"  response="00100001000100000100" foes="00100001000100000100" cont="0"/>
        <request index="8"  response="00100001000000000100" foes="00100001000010000100" cont="0"/>
        <request index="9"  response="00100011000001110100" foes="01100011000001111100" cont="0"/>
        <request index="10" response="00100111000001100011" foes="11100111000001100011" cont="0"/>
        <request index="11" response="00010111000001000010" foes="00011111000001000010" cont="0"/>
        <request index="12" response="00000000000000000000" foes="00100000111110000100" cont="0"/>
        <request index="13" response="00000000000000000000" foes="01100000111001111100" cont="0"/>
        <request index="14" response="00000000000000000011" foes="11100000110001100011" cont="1"/>
        <request index="15" response="00010000100001000010" foes="00010000100001000010" cont="1"/>
        <request index="16" response="00000000000000000010" foes="00001000100001000010" cont="0"/>
        <request index="17" response="00000111000000000110" foes="00000111011111000110" cont="0"/>
        <request index="18" response="00000110011000110110" foes="00000110011000111110" cont="0"/>
        <request index="19" response="00000100010000100001" foes="00000100010000100001" cont="0"/>
    </junction>
    <junction id="1" type="priority" x="0.00" y="200.00" incLanes="1o_0" intLanes=":1_0_0" shape="0.00,200.00 0.00,203.20 0.00,200.00">
        <request index="0" response="0" foes="0" cont="0"/>
    </junction>
    <junction id="2" type="priority" x="50.00" y="50.00" incLanes="2o_0" intLanes=":2_0_0" shape="50.00,50.00 47.74,52.26 50.00,50.00">
        <request index="0" response="0" foes="0" cont="0"/>
    </junction>
    <junction id="3" type="dead_end" x="200.00" y="0.00" incLanes="" intLanes="" shape="200.00,0.00 203.20,0.00"/>
    <junction id="4" type="priority" x="400.00" y="200.00" incLanes="4o_0" intLanes=":4_0_0" shape="400.00,200.00 400.00,196.80 400.00,200.00">
        <request index="0" response="0" foes="0" cont="0"/>
    </junction>
    <junction id="5" type="priority" x="350.00" y="350.00" incLanes="5o_0" intLanes=":5_0_0" shape="350.00,350.00 352.26,347.74 350.00,350.00">
        <request index="0" response="0" foes="0" cont="0"/>
    </junction>

    <junction id=":0_20_0" type="internal" x="203.08" y="203.08" incLanes=":0_2_0 2i_0" intLanes=":0_5_0 :0_6_0 :0_7_0 :0_8_0 :0_9_0 :0_12_0 :0_13_0 :0_17_0 :0_18_0"/>
    <junction id=":0_21_0" type="internal" x="207.16" y="207.16" incLanes=":0_3_0 1i_0 2i_0 3i_0 4i_0" intLanes=":0_4_0 :0_9_0 :0_13_0 :0_18_0"/>
    <junction id=":0_22_0" type="internal" x="196.92" y="196.92" incLanes=":0_14_0 5i_0" intLanes=":0_0_0 :0_1_0 :0_5_0 :0_6_0 :0_10_0 :0_11_0 :0_17_0 :0_18_0 :0_19_0"/>
    <junction id=":0_23_0" type="internal" x="192.84" y="192.84" incLanes=":0_15_0 1i_0 3i_0 4i_0 5i_0" intLanes=":0_1_0 :0_6_0 :0_11_0 :0_16_0"/>

    <connection from="1i" to="2o" fromLane="0" toLane="0" via=":0_16_0" dir="r" state="m"/>
    <connection from="1i" to="4o" fromLane="0" toLane="0" via=":0_17_0" dir="s" state="m"/>
    <connection from="1i" to="5o" fromLane="0" toLane="0" via=":0_18_0" dir="l" state="m"/>
    <connection from="1i" to="1o" fromLane="0" toLane="0" via=":0_19_0" dir="t" state="m"/>
    <connection from="1o" to="1i" fromLane="0" toLane="0" via=":1_0_0" dir="t" state="M"/>
    <connection from="2i" to="4o" fromLane="0" toLane="0" via=":0_12_0" dir="r" state="M"/>
    <connection from="2i" to="5o" fromLane="0" toLane="0" via=":0_13_0" dir="s" state="M"/>
    <connection from="2i" to="1o" fromLane="0" toLane="0" via=":0_14_0" dir="l" state="m"/>
    <connection from="2i" to="2o" fromLane="0" toLane="0" via=":0_15_0" dir="t" state="m"/>
    <connection from="2o" to="2i" fromLane="0" toLane="0" via=":2_0_0" dir="t" state="M"/>
    <connection from="3i" to="4o" fromLane="0" toLane="0" via=":0_8_0" dir="r" state="m"/>
    <connection from="3i" to="5o" fromLane="0" toLane="0" via=":0_9_0" dir="R" state="m"/>
    <connection from="3i" to="1o" fromLane="0" toLane="0" via=":0_10_0" dir="L" state="m"/>
    <connection from="3i" to="2o" fromLane="0" toLane="0" via=":0_11_0" dir="l" state="m"/>
    <connection from="4i" to="5o" fromLane="0" toLane="0" via=":0_4_0" dir="r" state="m"/>
    <connection from="4i" to="1o" fromLane="0" toLane="0" via=":0_5_0" dir="s" state="m"/>
    <connection from="4i" to="2o" fromLane="0" toLane="0" via=":0_6_0" dir="l" state="m"/>
    <connection from="4i" to="4o" fromLane="0" toLane="0" via=":0_7_0" dir="t" state="m"/>
    <connection from="4o" to="4i" fromLane="0" toLane="0" via=":4_0_0" dir="t" state="M"/>
    <connection from="5i" to="1o" fromLane="0" toLane="0" via=":0_0_0" dir="r" state="M"/>
    <connection from="5i" to="2o" fromLane="0" toLane="0" via=":0_1_0" dir="s" state="M"/>
    <connection from="5i" to="4o" fromLane="0" toLane="0" via=":0_2_0" dir="l" state="m"/>
    <connection from="5i" to="5o" fromLane="0" toLane="0" via=":0_3_0" dir="t" state="m"/>
    <connection from="5o" to="5i" fromLane="0" toLane="0" via=":5_0_0" dir="t" state="M"/>

    <connection from=":0_0" to="1o" fromLane="0" toLane="0" dir="r" state="M"/>
    <connection from=":0_1" to="2o" fromLane="0" toLane="0" dir="s" state="M"/>
    <connection from=":0_2" to="4o" fromLane="0" toLane="0" via=":0_20_0" dir="l" state="m"/>
    <connection from=":0_20" to="4o" fromLane="0" toLane="0" dir="l" state="M"/>
    <connection from=":0_3" to="5o" fromLane="0" toLane="0" via=":0_21_0" dir="t" state="m"/>
    <connection from=":0_21" to="5o" fromLane="0" toLane="0" dir="t" state="M"/>
    <connection from=":0_4" to="5o" fromLane="0" toLane="0" dir="r" state="M"/>
    <connection from=":0_5" to="1o" fromLane="0" toLane="0" dir="s" state="M"/>
    <connection from=":0_6" to="2o" fromLane="0" toLane="0" dir="l" state="M"/>
    <connection from=":0_7" to="4o" fromLane="0" toLane="0" dir="t" state="M"/>
    <connection from=":0_8" to="4o" fromLane="0" toLane="0" dir="r" state="M"/>
    <connection from=":0_9" to="5o" fromLane="0" toLane="0" dir="R" state="M"/>
    <connection from=":0_10" to="1o" fromLane="0" toLane="0" dir="L" state="M"/>
    <connection from=":0_11" to="2o" fromLane="0" toLane="0" dir="l" state="M"/>
    <connection from=":0_12" to="4o" fromLane="0" toLane="0" dir="r" state="M"/>
    <connection from=":0_13" to="5o" fromLane="0" toLane="0" dir="s" state="M"/>
    <connection from=":0_14" to="1o" fromLane="0" toLane="0" via=":0_22_0" dir="l" state="m"/>
    <connection from=":0_22" to="1o" fromLane="0" toLane="0" dir="l" state="M"/>
    <connection from=":0_15" to="2o" fromLane="0" toLane="0" via=":0_23_0" dir="t" state="m"/>
    <connection from=":0_23" to="2o" fromLane="0" toLane="0" dir="t" state="M"/>
    <connection from=":0_16" to="2o" fromLane="0" toLane="0" dir="r" state="M"/>
    <connection from=":0_17" to="4o" fromLane="0" toLane="0" dir="s" state="M"/>
    <connection from=":0_18" to="5o" fromLane="0" toLane="0" dir="l" state="M"/>
    <connection from=":0_19" to="1o" fromLane="0" toLane="0" dir="t" state="M"/>
    <connection from=":1_0" to="1i" fromLane="0" toLane="0" dir="t" state="M"/>
    <connection from=":2_0" to="2i" fromLane="0" toLane="0" dir="t" state="M"/>
    <connection from=":4_0" to="4i" fromLane="0" toLane="0" dir="t" state="M"/>
    <connection from=":5_0" to="5i" fromLane="0" toLane="0" dir="t" state="M"/>

</net>
