<?xml version="1.0" encoding="UTF-8"?>
<edges xmlns:xsi="http://www.w3.org/2001/XMLSchema-instance" xsi:noNamespaceSchemaLocation="http://sumo.dlr.de/xsd/edges_file.xsd">
   <edge id="1i" from="1" to="0" priority="2" numLanes="1" speed="10" />
   <edge id="1o" from="0" to="1" priority="2" numLanes="1" speed="10" />

   <edge id="2i" from="2" to="0" priority="2" numLanes="1" speed="10" />
   <edge id="2o" from="0" to="2" priority="2" numLanes="1" speed="10" />

   <edge id="3i" from="3" to="0" priority="2" numLanes="1" speed="10" />

   <edge id="4i" from="4" to="0" priority="2" numLanes="1" speed="10" />
   <edge id="4o" from="0" to="4" priority="2" numLanes="1" speed="10" />

   <edge id="5i" from="5" to="0" priority="2" numLanes="1" speed="10" />
   <edge id="5o" from="0" to="5" priority="2" numLanes="1" speed="10" />
</edges>
