<?xml version="1.0" encoding="UTF-8"?>

<!-- generated on So 23 Feb 2020 13:03:39 CET by Eclipse SUMO netedit Version v1_3_1+0155-9eee3b84a7
<configuration xmlns:xsi="http://www.w3.org/2001/XMLSchema-instance" xsi:noNamespaceSchemaLocation="http://sumo.dlr.de/xsd/netconvertConfiguration.xsd">

    <input>
        <sumo-net-file value="hard-braking.net.xml"/>
    </input>

    <output>
        <output-file value="hard-braking.net.xml"/>
    </output>

    <processing>
        <geometry.max-grade.fix value="false"/>
        <offset.disable-normalization value="true"/>
        <lefthand value="false"/>
    </processing>

    <junctions>
        <no-turnarounds value="true"/>
        <junctions.corner-detail value="5"/>
        <junctions.limit-turn-speed value="5.5"/>
        <rectangular-lane-cut value="false"/>
    </junctions>

    <pedestrian>
        <walkingareas value="false"/>
    </pedestrian>

</configuration>
-->

<net version="1.3" junctionCornerDetail="5" limitTurnSpeed="5.50" xmlns:xsi="http://www.w3.org/2001/XMLSchema-instance" xsi:noNamespaceSchemaLocation="http://sumo.dlr.de/xsd/net_file.xsd">

    <location netOffset="0.00,0.00" convBoundary="-108.50,-70.00,101.00,5.75" origBoundary="-108.50,-70.00,101.00,5.75" projParameter="!"/>

    <edge id=":0_0" function="internal">
        <lane id=":0_0_0" index="0" speed="10.00" length="25.03" shape="15.12,4.52 9.82,4.00 2.59,3.88 -4.60,4.26 -9.79,5.22"/>
    </edge>
    <edge id=":0_1" function="internal">
        <lane id=":0_1_0" index="0" speed="10.00" length="26.90" shape="15.12,4.52 9.68,3.14 2.18,0.82 -5.22,-1.77 -10.34,-4.01"/>
    </edge>
    <edge id=":0_2" function="internal">
        <lane id=":0_2_0" index="0" speed="6.37" length="15.44" shape="15.12,4.52 11.53,2.55 10.12,-0.79 10.99,-4.31 14.23,-6.82"/>
    </edge>
    <edge id=":0_3" function="internal">
        <lane id=":0_3_0" index="0" speed="3.65" length="4.67" shape="15.12,4.52 14.09,3.51 13.85,2.65 14.39,1.94 15.72,1.38"/>
    </edge>
    <edge id=":0_4" function="internal">
        <lane id=":0_4_0" index="0" speed="5.52" length="11.11" shape="15.32,-3.80 11.87,-2.23 10.78,-0.84 12.07,0.36 15.72,1.38"/>
    </edge>
    <edge id=":0_5" function="internal">
        <lane id=":0_5_0" index="0" speed="10.00" length="26.68" shape="15.32,-3.80 -9.79,5.22"/>
    </edge>
    <edge id=":0_6" function="internal">
        <lane id=":0_6_0" index="0" speed="10.00" length="11.94" shape="15.32,-3.80 7.91,-1.73 3.68,-1.32"/>
    </edge>
    <edge id=":0_7" function="internal">
        <lane id=":0_7_0" index="0" speed="3.65" length="2.34" shape="15.32,-3.80 13.92,-4.15 13.27,-4.77"/>
    </edge>
    <edge id=":0_20" function="internal">
        <lane id=":0_20_0" index="0" speed="10.00" length="14.50" shape="3.68,-1.32 1.17,-1.08 -4.92,-1.84 -10.34,-4.01"/>
    </edge>
    <edge id=":0_21" function="internal">
        <lane id=":0_21_0" index="0" speed="3.65" length="2.34" shape="13.27,-4.77 13.38,-5.66 14.23,-6.82"/>
    </edge>
    <edge id=":0_8" function="internal">
        <lane id=":0_8_0" index="0" speed="7.35" length="14.91" shape="1.60,-8.55 2.39,-6.09 4.76,-4.98 8.71,-5.22 14.23,-6.82"/>
    </edge>
    <edge id=":0_9" function="internal">
        <lane id=":0_9_0" index="0" speed="9.78" length="18.60" shape="1.60,-8.55 2.48,-5.22 5.13,-2.45 9.54,-0.26 15.72,1.38"/>
    </edge>
    <edge id=":0_10" function="internal">
        <lane id=":0_10_0" index="0" speed="10.00" length="19.14" shape="1.60,-8.55 0.89,-4.06 -1.25,-0.27 -4.81,2.82 -9.79,5.22"/>
    </edge>
    <edge id=":0_11" function="internal">
        <lane id=":0_11_0" index="0" speed="7.50" length="17.18" shape="1.60,-8.55 0.85,-4.03 -1.39,-1.77 -5.12,-1.76 -10.34,-4.01"/>
    </edge>
    <edge id=":0_12" function="internal">
        <lane id=":0_12_0" index="0" speed="10.00" length="23.69" shape="-8.77,-6.80 -3.98,-4.91 1.44,-4.28 7.52,-4.92 14.23,-6.82"/>
    </edge>
    <edge id=":0_13" function="internal">
        <lane id=":0_13_0" index="0" speed="10.00" length="25.86" shape="-8.77,-6.80 -3.79,-4.61 3.27,-2.14 10.44,0.05 15.72,1.38"/>
    </edge>
    <edge id=":0_14" function="internal">
        <lane id=":0_14_0" index="0" speed="7.39" length="18.43" shape="-8.77,-6.80 -4.11,-3.38 -2.73,-0.23 -4.62,2.63 -9.79,5.22"/>
    </edge>
    <edge id=":0_15" function="internal">
        <lane id=":0_15_0" index="0" speed="3.65" length="4.67" shape="-8.77,-6.80 -8.12,-5.51 -8.16,-4.62 -8.90,-4.12 -10.34,-4.01"/>
    </edge>
    <edge id=":0_16" function="internal">
        <lane id=":0_16_0" index="0" speed="5.51" length="9.54" shape="-10.87,2.21 -8.20,0.87 -7.22,-0.61 -7.93,-2.24 -10.34,-4.01"/>
    </edge>
    <edge id=":0_17" function="internal">
        <lane id=":0_17_0" index="0" speed="10.00" length="26.68" shape="-10.87,2.21 14.23,-6.82"/>
    </edge>
    <edge id=":0_18" function="internal">
        <lane id=":0_18_0" index="0" speed="10.00" length="7.89" shape="-10.87,2.21 -5.42,1.23 -3.07,1.10"/>
    </edge>
    <edge id=":0_19" function="internal">
        <lane id=":0_19_0" index="0" speed="3.65" length="2.34" shape="-10.87,2.21 -9.47,2.55 -8.82,3.17"/>
    </edge>
    <edge id=":0_22" function="internal">
        <lane id=":0_22_0" index="0" speed="10.00" length="18.82" shape="-3.07,1.10 2.35,0.81 10.16,0.87 15.72,1.38"/>
    </edge>
    <edge id=":0_23" function="internal">
        <lane id=":0_23_0" index="0" speed="3.65" length="2.34" shape="-8.82,3.17 -8.93,4.06 -9.79,5.22"/>
    </edge>
    <edge id=":1_0" function="internal">
        <lane id=":1_0_0" index="0" speed="3.65" length="4.67" shape="-81.00,7.35 -82.20,6.55 -82.60,5.75 -82.20,4.95 -81.00,4.15"/>
    </edge>
    <edge id=":10_0" function="internal">
        <lane id=":10_0_0" index="0" speed="10.00" length="1.66" shape="-14.93,7.07 -15.40,7.23 -15.73,7.31 -16.07,7.34 -16.56,7.35"/>
    </edge>
    <edge id=":10_1" function="internal">
        <lane id=":10_1_0" index="0" speed="10.00" length="0.55" shape="-16.56,4.15 -16.39,4.15 -16.28,4.14 -16.17,4.11 -16.02,4.06"/>
    </edge>
    <edge id=":2_0" function="internal">
        <lane id=":2_0_0" index="0" speed="3.65" length="4.67" shape="-108.50,-11.70 -109.70,-12.50 -110.10,-13.30 -109.70,-14.10 -108.50,-14.90"/>
    </edge>
    <edge id=":20_0" function="internal">
        <lane id=":20_0_0" index="0" speed="10.00" length="0.83" shape="-23.55,-11.49 -23.77,-11.61 -23.93,-11.67 -24.10,-11.70 -24.34,-11.70"/>
    </edge>
    <edge id=":20_1" function="internal">
        <lane id=":20_1_0" index="0" speed="7.65" length="2.49" shape="-24.34,-14.90 -23.61,-14.89 -23.10,-14.81 -22.62,-14.63 -21.98,-14.28"/>
    </edge>
    <edge id=":4_0" function="internal">
        <lane id=":4_0_0" index="0" speed="3.65" length="4.67" shape="101.00,-7.35 102.20,-6.55 102.60,-5.75 102.20,-4.95 101.00,-4.15"/>
    </edge>
    <edge id=":40_0" function="internal">
        <lane id=":40_0_0" index="0" speed="10.00" length="0.55" shape="16.56,-4.15 16.39,-4.15 16.28,-4.14 16.17,-4.11 16.02,-4.06"/>
    </edge>
    <edge id=":40_1" function="internal">
        <lane id=":40_1_0" index="0" speed="10.00" length="1.66" shape="14.93,-7.07 15.40,-7.23 15.73,-7.31 16.07,-7.34 16.56,-7.35"/>
    </edge>
    <edge id=":5_0" function="internal">
        <lane id=":5_0_0" index="0" speed="3.65" length="4.67" shape="83.00,1.65 84.20,2.45 84.60,3.25 84.20,4.05 83.00,4.85"/>
    </edge>
    <edge id=":50_0" function="internal">
        <lane id=":50_0_0" index="0" speed="10.00" length="0.91" shape="17.30,4.85 17.03,4.85 16.85,4.84 16.67,4.81 16.40,4.76"/>
    </edge>
    <edge id=":50_1" function="internal">
        <lane id=":50_1_0" index="0" speed="10.00" length="0.30" shape="17.00,1.62 17.09,1.64 17.15,1.65 17.21,1.65 17.30,1.65"/>
    </edge>

    <edge id="1i1" from="1" to="10" priority="2">
        <lane id="1i1_0" index="0" speed="10.00" length="64.44" shape="-81.00,4.15 -16.56,4.15"/>
    </edge>
    <edge id="1i2" from="10" to="0" priority="2">
        <lane id="1i2_0" index="0" speed="10.00" length="5.47" shape="-16.02,4.06 -10.87,2.21"/>
    </edge>
    <edge id="1o1" from="0" to="10" priority="2">
        <lane id="1o1_0" index="0" speed="10.00" length="5.47" shape="-9.79,5.22 -14.93,7.07"/>
    </edge>
    <edge id="1o2" from="10" to="1" priority="2">
        <lane id="1o2_0" index="0" speed="10.00" length="64.44" shape="-16.56,7.35 -81.00,7.35"/>
    </edge>
    <edge id="2i1" from="2" to="20" priority="2">
        <lane id="2i1_0" index="0" speed="10.00" length="84.16" shape="-108.50,-14.90 -24.34,-14.90"/>
    </edge>
    <edge id="2i2" from="20" to="0" priority="2">
        <lane id="2i2_0" index="0" speed="10.00" length="15.18" shape="-21.98,-14.28 -8.77,-6.80"/>
    </edge>
    <edge id="2o1" from="0" to="20" priority="2">
        <lane id="2o1_0" index="0" speed="10.00" length="15.18" shape="-10.34,-4.01 -23.55,-11.49"/>
    </edge>
    <edge id="2o2" from="20" to="2" priority="2">
        <lane id="2o2_0" index="0" speed="10.00" length="84.16" shape="-24.34,-11.70 -108.50,-11.70"/>
    </edge>
    <edge id="3i" from="3" to="0" priority="2">
        <lane id="3i_0" index="0" speed="10.00" length="61.45" shape="1.60,-70.00 1.60,-8.55"/>
    </edge>
    <edge id="4i1" from="4" to="40" priority="2">
        <lane id="4i1_0" index="0" speed="10.00" length="84.44" shape="101.00,-4.15 16.56,-4.15"/>
    </edge>
    <edge id="4i2" from="40" to="0" priority="2">
        <lane id="4i2_0" index="0" speed="10.00" length="0.74" shape="16.02,-4.06 15.32,-3.80"/>
    </edge>
    <edge id="4o1" from="0" to="40" priority="2">
        <lane id="4o1_0" index="0" speed="10.00" length="0.74" shape="14.23,-6.82 14.93,-7.07"/>
    </edge>
    <edge id="4o2" from="40" to="4" priority="2">
        <lane id="4o2_0" index="0" speed="10.00" length="84.44" shape="16.56,-7.35 101.00,-7.35"/>
    </edge>
    <edge id="5i1" from="5" to="50" priority="2">
        <lane id="5i1_0" index="0" speed="10.00" length="65.70" shape="83.00,4.85 17.30,4.85"/>
    </edge>
    <edge id="5i2" from="50" to="0" priority="2">
        <lane id="5i2_0" index="0" speed="10.00" length="1.30" shape="16.40,4.76 15.12,4.52"/>
    </edge>
    <edge id="5o1" from="0" to="50" priority="2">
        <lane id="5o1_0" index="0" speed="10.00" length="1.30" shape="15.72,1.38 17.00,1.62"/>
    </edge>
    <edge id="5o2" from="50" to="5" priority="2">
        <lane id="5o2_0" index="0" speed="10.00" length="65.70" shape="17.30,1.65 83.00,1.65"/>
    </edge>

    <junction id="0" type="priority" x="0.00" y="0.00" incLanes="5i2_0 4i2_0 3i_0 2i2_0 1i2_0" intLanes=":0_0_0 :0_1_0 :0_2_0 :0_3_0 :0_4_0 :0_5_0 :0_20_0 :0_21_0 :0_8_0 :0_9_0 :0_10_0 :0_11_0 :0_12_0 :0_13_0 :0_14_0 :0_15_0 :0_16_0 :0_17_0 :0_22_0 :0_23_0" shape="14.82,6.09 16.02,-0.19 15.86,-2.30 13.69,-8.32 10.49,-7.28 7.86,-6.67 5.82,-6.49 4.37,-6.75 3.49,-7.43 3.20,-8.55 0.00,-8.55 -0.89,-6.34 -1.99,-6.02 -3.55,-6.23 -5.54,-6.95 -7.98,-8.19 -11.13,-2.62 -9.61,-1.38 -9.46,-0.81 -9.71,-0.27 -10.36,0.23 -11.41,0.70 -9.25,6.72 -4.35,5.11 -0.60,4.25 2.60,4.03 5.84,4.35 9.72,5.07">
        <request index="0"  response="00000000000000100000" foes="10000100010000100000" cont="0"/>
        <request index="1"  response="01110000000001100000" foes="01111100110001100000" cont="0"/>
        <request index="2"  response="01100011001101100000" foes="01100011001111100000" cont="0"/>
        <request index="3"  response="01000010001000010000" foes="01000010001000010000" cont="0"/>
        <request index="4"  response="00000000000000000000" foes="01000010001000001000" cont="0"/>
        <request index="5"  response="00000000000000000000" foes="11000110011000000111" cont="0"/>
        <request index="6"  response="00110000000000000000" foes="00111110111000000110" cont="1"/>
        <request index="7"  response="00100001000100000100" foes="00100001000100000100" cont="1"/>
        <request index="8"  response="00100000000000000000" foes="00100001000010000100" cont="0"/>
        <request index="9"  response="01100010000001110000" foes="01100011000001111100" cont="0"/>
        <request index="10" response="01100010000001100011" foes="11100111000001100011" cont="0"/>
        <request index="11" response="00010010000001000010" foes="00011111000001000010" cont="0"/>
        <request index="12" response="00100000111100000000" foes="00100000111110000100" cont="0"/>
        <request index="13" response="01100000000001110000" foes="01100000111001111100" cont="0"/>
        <request index="14" response="01100000110001100011" foes="11100000110001100011" cont="0"/>
        <request index="15" response="00010000100001000010" foes="00010000100001000010" cont="0"/>
        <request index="16" response="00000000000000000000" foes="00001000100001000010" cont="0"/>
        <request index="17" response="00000000000000000000" foes="00000111011111000110" cont="0"/>
        <request index="18" response="00000000000000110000" foes="00000110011000111110" cont="1"/>
        <request index="19" response="00000100010000100001" foes="00000100010000100001" cont="1"/>
    </junction>
    <junction id="1" type="unregulated" x="-81.00" y="5.75" incLanes="1o2_0" intLanes=":1_0_0" shape="-81.00,5.75 -81.00,8.95 -81.00,5.75"/>
    <junction id="10" type="unregulated" x="-16.00" y="5.75" incLanes="1o1_0 1i1_0" intLanes=":10_0_0 :10_1_0" shape="-14.39,8.57 -16.56,2.55 -16.56,8.95 -15.74,8.93 -15.45,8.90 -15.17,8.84 -14.84,8.73"/>
    <junction id="2" type="unregulated" x="-108.50" y="-13.30" incLanes="2o2_0" intLanes=":2_0_0" shape="-108.50,-13.30 -108.50,-10.10 -108.50,-13.30"/>
    <junction id="20" type="unregulated" x="-23.50" y="-13.30" incLanes="2o1_0 2i1_0" intLanes=":20_0_0 :20_1_0" shape="-24.34,-10.10 -21.19,-15.67 -22.28,-16.24 -22.69,-16.39 -23.12,-16.46 -23.64,-16.49 -24.34,-16.50"/>
    <junction id="3" type="dead_end" x="0.00" y="-70.00" incLanes="" intLanes="" shape="0.00,-70.00 3.20,-70.00"/>
    <junction id="4" type="unregulated" x="101.00" y="-5.75" incLanes="4o2_0" intLanes=":4_0_0" shape="101.00,-5.75 101.00,-8.95 101.00,-5.75"/>
    <junction id="40" type="unregulated" x="16.00" y="-5.75" incLanes="4i1_0 4o1_0" intLanes=":40_0_0 :40_1_0" shape="16.56,-2.55 16.56,-8.95 15.74,-8.93 15.45,-8.90 15.17,-8.84 14.84,-8.73 14.39,-8.57"/>
    <junction id="5" type="unregulated" x="83.00" y="3.25" incLanes="5o2_0" intLanes=":5_0_0" shape="83.00,3.25 83.00,0.05 83.00,3.25"/>
    <junction id="50" type="unregulated" x="17.00" y="3.25" incLanes="5i1_0 5o1_0" intLanes=":50_0_0 :50_1_0" shape="17.30,6.45 17.30,0.05 16.10,6.34 16.54,6.42 16.70,6.44 16.86,6.45 17.05,6.45"/>

    <junction id=":0_20_0" type="internal" x="3.68" y="-1.32" incLanes=":0_6_0 1i2_0" intLanes=":0_1_0 :0_2_0 :0_9_0 :0_10_0 :0_11_0 :0_13_0 :0_14_0 :0_15_0 :0_16_0 :0_17_0"/>
    <junction id=":0_21_0" type="internal" x="13.27" y="-4.77" incLanes=":0_7_0 1i2_0 2i2_0 3i_0 5i2_0" intLanes=":0_2_0 :0_8_0 :0_12_0 :0_17_0"/>
    <junction id=":0_22_0" type="internal" x="-3.07" y="1.10" incLanes=":0_18_0 4i2_0" intLanes=":0_1_0 :0_2_0 :0_3_0 :0_4_0 :0_5_0 :0_9_0 :0_10_0 :0_13_0 :0_14_0"/>
    <junction id=":0_23_0" type="internal" x="-8.82" y="3.17" incLanes=":0_19_0 2i2_0 3i_0 4i2_0 5i2_0" intLanes=":0_0_0 :0_5_0 :0_10_0 :0_14_0"/>

    <connection from="1i1" to="1i2" fromLane="0" toLane="0" via=":10_1_0" dir="s" state="M"/>
    <connection from="1i2" to="2o1" fromLane="0" toLane="0" via=":0_16_0" dir="r" state="M"/>
    <connection from="1i2" to="4o1" fromLane="0" toLane="0" via=":0_17_0" dir="s" state="M"/>
    <connection from="1i2" to="5o1" fromLane="0" toLane="0" via=":0_18_0" dir="L" state="m"/>
    <connection from="1i2" to="1o1" fromLane="0" toLane="0" via=":0_19_0" dir="t" state="m"/>
    <connection from="1o1" to="1o2" fromLane="0" toLane="0" via=":10_0_0" dir="s" state="M"/>
    <connection from="1o2" to="1i1" fromLane="0" toLane="0" via=":1_0_0" dir="t" state="M"/>
    <connection from="2i1" to="2i2" fromLane="0" toLane="0" via=":20_1_0" dir="s" state="M"/>
    <connection from="2i2" to="4o1" fromLane="0" toLane="0" via=":0_12_0" dir="r" state="m"/>
    <connection from="2i2" to="5o1" fromLane="0" toLane="0" via=":0_13_0" dir="s" state="m"/>
    <connection from="2i2" to="1o1" fromLane="0" toLane="0" via=":0_14_0" dir="l" state="m"/>
    <connection from="2i2" to="2o1" fromLane="0" toLane="0" via=":0_15_0" dir="t" state="m"/>
    <connection from="2o1" to="2o2" fromLane="0" toLane="0" via=":20_0_0" dir="s" state="M"/>
    <connection from="2o2" to="2i1" fromLane="0" toLane="0" via=":2_0_0" dir="t" state="M"/>
    <connection from="3i" to="4o1" fromLane="0" toLane="0" via=":0_8_0" dir="r" state="m"/>
    <connection from="3i" to="5o1" fromLane="0" toLane="0" via=":0_9_0" dir="R" state="m"/>
    <connection from="3i" to="1o1" fromLane="0" toLane="0" via=":0_10_0" dir="L" state="m"/>
    <connection from="3i" to="2o1" fromLane="0" toLane="0" via=":0_11_0" dir="l" state="m"/>
    <connection from="4i1" to="4i2" fromLane="0" toLane="0" via=":40_0_0" dir="s" state="M"/>
    <connection from="4i2" to="5o1" fromLane="0" toLane="0" via=":0_4_0" dir="r" state="M"/>
    <connection from="4i2" to="1o1" fromLane="0" toLane="0" via=":0_5_0" dir="s" state="M"/>
    <connection from="4i2" to="2o1" fromLane="0" toLane="0" via=":0_6_0" dir="l" state="m"/>
    <connection from="4i2" to="4o1" fromLane="0" toLane="0" via=":0_7_0" dir="t" state="m"/>
    <connection from="4o1" to="4o2" fromLane="0" toLane="0" via=":40_1_0" dir="s" state="M"/>
    <connection from="4o2" to="4i1" fromLane="0" toLane="0" via=":4_0_0" dir="t" state="M"/>
    <connection from="5i1" to="5i2" fromLane="0" toLane="0" via=":50_0_0" dir="s" state="M"/>
    <connection from="5i2" to="1o1" fromLane="0" toLane="0" via=":0_0_0" dir="R" state="m"/>
    <connection from="5i2" to="2o1" fromLane="0" toLane="0" via=":0_1_0" dir="s" state="m"/>
    <connection from="5i2" to="4o1" fromLane="0" toLane="0" via=":0_2_0" dir="l" state="m"/>
    <connection from="5i2" to="5o1" fromLane="0" toLane="0" via=":0_3_0" dir="t" state="m"/>
    <connection from="5o1" to="5o2" fromLane="0" toLane="0" via=":50_1_0" dir="s" state="M"/>
    <connection from="5o2" to="5i1" fromLane="0" toLane="0" via=":5_0_0" dir="t" state="M"/>

    <connection from=":0_0" to="1o1" fromLane="0" toLane="0" dir="R" state="M"/>
    <connection from=":0_1" to="2o1" fromLane="0" toLane="0" dir="s" state="M"/>
    <connection from=":0_2" to="4o1" fromLane="0" toLane="0" dir="l" state="M"/>
    <connection from=":0_3" to="5o1" fromLane="0" toLane="0" dir="t" state="M"/>
    <connection from=":0_4" to="5o1" fromLane="0" toLane="0" dir="r" state="M"/>
    <connection from=":0_5" to="1o1" fromLane="0" toLane="0" dir="s" state="M"/>
    <connection from=":0_6" to="2o1" fromLane="0" toLane="0" via=":0_20_0" dir="l" state="m"/>
    <connection from=":0_20" to="2o1" fromLane="0" toLane="0" dir="l" state="M"/>
    <connection from=":0_7" to="4o1" fromLane="0" toLane="0" via=":0_21_0" dir="t" state="m"/>
    <connection from=":0_21" to="4o1" fromLane="0" toLane="0" dir="t" state="M"/>
    <connection from=":0_8" to="4o1" fromLane="0" toLane="0" dir="r" state="M"/>
    <connection from=":0_9" to="5o1" fromLane="0" toLane="0" dir="R" state="M"/>
    <connection from=":0_10" to="1o1" fromLane="0" toLane="0" dir="L" state="M"/>
    <connection from=":0_11" to="2o1" fromLane="0" toLane="0" dir="l" state="M"/>
    <connection from=":0_12" to="4o1" fromLane="0" toLane="0" dir="r" state="M"/>
    <connection from=":0_13" to="5o1" fromLane="0" toLane="0" dir="s" state="M"/>
    <connection from=":0_14" to="1o1" fromLane="0" toLane="0" dir="l" state="M"/>
    <connection from=":0_15" to="2o1" fromLane="0" toLane="0" dir="t" state="M"/>
    <connection from=":0_16" to="2o1" fromLane="0" toLane="0" dir="r" state="M"/>
    <connection from=":0_17" to="4o1" fromLane="0" toLane="0" dir="s" state="M"/>
    <connection from=":0_18" to="5o1" fromLane="0" toLane="0" via=":0_22_0" dir="L" state="m"/>
    <connection from=":0_22" to="5o1" fromLane="0" toLane="0" dir="L" state="M"/>
    <connection from=":0_19" to="1o1" fromLane="0" toLane="0" via=":0_23_0" dir="t" state="m"/>
    <connection from=":0_23" to="1o1" fromLane="0" toLane="0" dir="t" state="M"/>
    <connection from=":1_0" to="1i1" fromLane="0" toLane="0" dir="t" state="M"/>
    <connection from=":10_0" to="1o2" fromLane="0" toLane="0" dir="s" state="M"/>
    <connection from=":10_1" to="1i2" fromLane="0" toLane="0" dir="s" state="M"/>
    <connection from=":2_0" to="2i1" fromLane="0" toLane="0" dir="t" state="M"/>
    <connection from=":20_0" to="2o2" fromLane="0" toLane="0" dir="s" state="M"/>
    <connection from=":20_1" to="2i2" fromLane="0" toLane="0" dir="s" state="M"/>
    <connection from=":4_0" to="4i1" fromLane="0" toLane="0" dir="t" state="M"/>
    <connection from=":40_0" to="4i2" fromLane="0" toLane="0" dir="s" state="M"/>
    <connection from=":40_1" to="4o2" fromLane="0" toLane="0" dir="s" state="M"/>
    <connection from=":5_0" to="5i1" fromLane="0" toLane="0" dir="t" state="M"/>
    <connection from=":50_0" to="5i2" fromLane="0" toLane="0" dir="s" state="M"/>
    <connection from=":50_1" to="5o2" fromLane="0" toLane="0" dir="s" state="M"/>

</net>
